
//   run_parallel_cfdemSolverPiso_fluidizedbedTestMPI_CFDDEM   //

/home/hwb/CFDEM/bubbling_fluidized_bed/fluidizedbedTest/CFD

/*---------------------------------------------------------------------------*\
| =========                 |                                                 |
| \\      /  F ield         | OpenFOAM: The Open Source CFD Toolbox           |
|  \\    /   O peration     | Version:  5.x                                   |
|   \\  /    A nd           | Web:      www.OpenFOAM.org                      |
|    \\/     M anipulation  |                                                 |
\*---------------------------------------------------------------------------*/
Build  : 5.x-197d9d3bf20a
Exec   : cfdemSolverPiso -parallel
Date   : Jul 29 2020
Time   : 23:22:11
Host   : "hwb-virtual-machine"
PID    : 9163
I/O    : uncollated
Case   : /home/hwb/CFDEM/bubbling_fluidized_bed/fluidizedbedTest/CFD
nProcs : 4
Slaves : 
3
(
"hwb-virtual-machine.9164"
"hwb-virtual-machine.9165"
"hwb-virtual-machine.9166"
)

Pstream initialized with:
    floatTransfer      : 0
    nProcsSimpleSum    : 0
    commsType          : nonBlocking
    polling iterations : 0
sigFpe : Enabling floating point exception trapping (FOAM_SIGFPE).
fileModificationChecking : Monitoring run-time modified files using timeStampMaster (fileModificationSkew 10)
allowSystemOperations : Allowing user-supplied system call operations

// * * * * * * * * * * * * * * * * * * * * * * * * * * * * * * * * * * * * * //
Create time

Create mesh for time = 0


PISO: Operating solver in PISO mode

Reading field p

Reading physical velocity field U
Note: only if voidfraction at boundary is 1, U is superficial velocity!!!


Reading momentum exchange field Ksl


Reading voidfraction field voidfraction = (Vgas/Vparticle)


Creating density field rho

Reading particle velocity field Us

Reading/calculating face flux field phi

Generating interstitial face flux field phiByVoidfraction

Selecting incompressible transport model Newtonian
Selecting turbulence model type laminar
Selecting laminar stress model Stokes
No finite volume options present


Reading g
Selecting locateModel engine
Selecting dataExchangeModel twoWayMPI
Starting up LIGGGHTS for first time execution
Executing input script '../DEM/in.liggghts_run'
LIGGGHTS (Version LIGGGHTS-PUBLIC 3.8.0, compiled 2017-12-08-22:42:34 by hwb, git commit unknown)
version 3 8
version 3 8
Reading restart file ...
WARNING: Restart file version does not match LIGGGHTS version (../read_restart.cpp:507)
version 3 8
   --> restart file = Version LIGGGHTS-PUBLIC 3.8.0, compiled 2017-12-08-22:31:09 by hwb, git commit unknown
   --> LIGGGHTS = Version LIGGGHTS-PUBLIC 3.8.0, compiled 2017-12-08-22:42:34 by hwb, git commit unknown
version 3 8
WARNING: Restart file used different 3d processor grid (../read_restart.cpp:587)
  orthogonal box = (-0.05 -0.05 -0.01) to (0.05 0.05 0.5)
  2 by 2 by 1 MPI processor grid
  15278 atoms
INFO: mesh file (../DEM/STL/fluidizedbedriser1.stl) is required, but data will be taken from restart file (../fix_mesh.cpp:417)
Resetting global state of Fix fb1 Style mesh/surface from restart file info
INFO: mesh file (../DEM/STL/fluidizedbedriser2.stl) is required, but data will be taken from restart file (../fix_mesh.cpp:417)
Resetting global state of Fix fb2 Style mesh/surface from restart file info
INFO: mesh file (../DEM/STL/fluidizedbedBioin.stl) is required, but data will be taken from restart file (../fix_mesh.cpp:417)
Resetting global state of Fix fbBioin Style mesh/surface from restart file info
INFO: mesh file (../DEM/STL/fluidizedbedGasin.stl) is required, but data will be taken from restart file (../fix_mesh.cpp:417)
Resetting global state of Fix fbGasin Style mesh/surface from restart file info
INFO: mesh file (../DEM/STL/fluidizedbedOut.stl) is required, but data will be taken from restart file (../fix_mesh.cpp:417)
Resetting global state of Fix fbOut Style mesh/surface from restart file info
Resetting global state of Fix n_neighs_mesh_fb1 Style property/atom from restart file info
Resetting per-atom state of Fix n_neighs_mesh_fb1 Style property/atom from restart file info
Resetting global state of Fix tracker_fb1 Style contacthistory/mesh from restart file info
Resetting per-atom state of Fix tracker_fb1 Style contacthistory/mesh from restart file info
Resetting global state of Fix n_neighs_mesh_fb2 Style property/atom from restart file info
Resetting per-atom state of Fix n_neighs_mesh_fb2 Style property/atom from restart file info
Resetting global state of Fix tracker_fb2 Style contacthistory/mesh from restart file info
Resetting per-atom state of Fix tracker_fb2 Style contacthistory/mesh from restart file info
Resetting global state of Fix n_neighs_mesh_fbGasin Style property/atom from restart file info
Resetting per-atom state of Fix n_neighs_mesh_fbGasin Style property/atom from restart file info
Resetting global state of Fix tracker_fbGasin Style contacthistory/mesh from restart file info
Resetting per-atom state of Fix tracker_fbGasin Style contacthistory/mesh from restart file info
Resetting global state of Fix n_neighs_mesh_fbBioin Style property/atom from restart file info
Resetting per-atom state of Fix n_neighs_mesh_fbBioin Style property/atom from restart file info
Resetting global state of Fix tracker_fbBioin Style contacthistory/mesh from restart file info
Resetting per-atom state of Fix tracker_fbBioin Style contacthistory/mesh from restart file info
Fix particledistribution/discrete (id pdd2): distribution based on mass%:
    pts2: d=2.000000e-03 (max. bounding sphere) mass%=100.000000%
Fix particledistribution/discrete (id pdd2): distribution based on number%:
    pts2: d=2.000000e-03 (max. bounding sphere) number%=100.000000%
couple_every as specified in LIGGGHTS is overriden by calling external program (../fix_cfd_coupling.cpp:114)
WARNING: Changing thermo_temp compute object. This object is deprecated and will be removed in the future. (../compute.cpp:161)
Resetting global state of Fix contacthistory Style contacthistory from restart file info
Resetting per-atom state of Fix contacthistory Style contacthistory from restart file info
Setting up run at Wed Jul 29 23:22:14 2020

Import and parallelization of mesh fb1 containing 9645 triangle(s) successful
Import and parallelization of mesh fb2 containing 1950 triangle(s) successful
Import and parallelization of mesh fbBioin containing 105 triangle(s) successful
Import and parallelization of mesh fbGasin containing 2620 triangle(s) successful
Import and parallelization of mesh fbOut containing 10343 triangle(s) successful
INFO: Particle insertion ins2: 0.031831 particles every 2000 steps - particle rate 15.915494  (mass rate 1.000000e-04)
      31 particles (mass 1.947787e-04) within 1946000 steps
Memory usage per processor = 25.7242 Mbytes
    Step    Atoms         KinEng            rke         Volume       centerOf       dragtota       dragtota       dragtota 
  350000    15278  4.7485588e-10  5.0094675e-10         0.0051   0.0030943355              0              0              0 
WARNING: Particle insertion: Inserting no particle - check particle insertion settings (../fix_insert.cpp:703)
  350001    15278  4.7392296e-10  5.0026132e-10         0.0051   0.0030943355              0              0              0 
Loop time of 0.0225643 on 4 procs for 1 steps with 15278 atoms, finish time Wed Jul 29 23:22:16 2020


Pair  time (%) = 0.00249904 (11.0752)
Neigh time (%) = 0.00792253 (35.1109)
Comm  time (%) = 0.00160837 (7.12795)
Outpt time (%) = 0.000482976 (2.14045)
Other time (%) = 0.0100514 (44.5455)

Nlocal:    3819.5 ave 3850 max 3776 min
Histogram: 1 0 0 0 1 0 0 0 1 1
Nghost:    771 ave 783 max 766 min
Histogram: 2 1 0 0 0 0 0 0 0 1
Neighs:    27105.2 ave 27400 max 26830 min
Histogram: 1 0 0 0 2 0 0 0 0 1

Total # of neighbors = 108421
Ave neighs/atom = 7.09654
Neighbor list builds = 1
Dangerous builds = 0
Selecting IOModel basicIO
Selecting probeModel off
Selecting voidFractionModel divided
Selecting averagingModel dense
Selecting clockModel standardClock
start clock measurement at t >0.0001
Selecting smoothingModel off
Selecting meshMotionModel noMeshMotion

CFDEMcoupling version: cfdem-3.8.1
, compatible to LIGGGHTS version: 3.8.0
, compatible to OF version and build: 5.x-commit-538044ac05c4672b37c7df607dca1116fa88df88

You are currently using:
OF version: 5.x
OF build: 5.x-197d9d3bf20a
CFDEM build: 

cg is set to: 1
LIGGGHTS hosts 2 atom types.
If BC are important, please provide volScalarFields -imp/expParticleForces-
ignoring ddt(voidfraction)
Selecting momCoupleModel implicitCouple

implicit momentum exchange field calculate if alphaP larger than : 1
Selecting forceModel KochHillDrag
 Selecting forceSubModel ImEx
 reading switches:
  looking for treatForceExplicit ...  not found in dict, using default. treatForceExplicit = false
  looking for implForceDEM ...  not found in dict, using default. implForceDEM = false
  looking for verbose ...  not found in dict, using default. verbose = false
  looking for interpolation ...  not found in dict, using default. interpolation = false
  looking for implForceDEMaccumulated ...  not found in dict, using default. implForceDEMaccumulated = false
  looking for scalarViscosity ...  not found in dict, using default. scalarViscosity = false

Selecting forceModel gradPForce
 Selecting forceSubModel ImEx
 reading switches:
  looking for treatForceExplicit ...  not found in dict, using default. treatForceExplicit = true
  looking for verbose ...  not found in dict, using default. verbose = false
  looking for interpolation ...  not found in dict, using default. interpolation = false

Selecting forceModel viscForce
 Selecting forceSubModel ImEx
 reading switches:
  looking for treatForceExplicit ...  not found in dict, using default. treatForceExplicit = true
  looking for verbose ...  not found in dict, using default. verbose = false
  looking for interpolation ...  found in dict. interpolation = true
  looking for scalarViscosity ...  not found in dict, using default. scalarViscosity = false

Selecting liggghtsCommandModel runLiggghts ,provide dicts, numbered from 0 to n
Selecting liggghtsCommandModel writeLiggghts ,provide dicts, numbered from 0 to n
writeLiggghts: A restart file writeName_write_restart ../DEM/post/restart/liggghts.restartCFDEM is written.
solving volume averaged Navier Stokes equations of type A
check if Archimedes lift is necessary (depends on pressure formulation)


Starting time loop

--> FOAM Warning : 
    From function void Foam::timeControl::read(const Foam::dictionary&)
    in file db/functionObjects/timeControl/timeControl.C at line 89
    Reading "/home/hwb/CFDEM/bubbling_fluidized_bed/fluidizedbedTest/CFD/system/controlDict.functions.probes" from line 59 to line 78
    Using deprecated 'outputControl'
    Please use 'writeControl' with 'writeInterval'
Time = 5e-05

Courant Number mean: 5.29848e-05 max: 0.969927

 Coupling...
Starting up LIGGGHTS
Executing command: 'run 50    '
Setting up run at Wed Jul 29 23:22:19 2020

Memory usage per processor = 25.7245 Mbytes
    Step    Atoms         KinEng            rke         Volume       centerOf       dragtota       dragtota       dragtota 
  350001    15278  4.7392296e-10  5.0026132e-10         0.0051   0.0030943355              0              0              0 
CFD Coupling established at step 350050
  350051    15278  5.2404707e-10  4.1542477e-10         0.0051   0.0030943326              0              0              0 
Loop time of 0.304467 on 4 procs for 50 steps with 15278 atoms, finish time Wed Jul 29 23:22:19 2020


Pair  time (%) = 0.119122 (39.1248)
Neigh time (%) = 0 (0)
Comm  time (%) = 0.00374699 (1.23067)
Outpt time (%) = 0.0258855 (8.50188)
Other time (%) = 0.155713 (51.1426)

Nlocal:    3819.5 ave 3850 max 3776 min
Histogram: 1 0 0 0 1 0 0 0 1 1
Nghost:    771 ave 783 max 766 min
Histogram: 2 1 0 0 0 0 0 0 0 1
Neighs:    27105.2 ave 27400 max 26830 min
Histogram: 1 0 0 0 2 0 0 0 0 1

Total # of neighbors = 108421
Ave neighs/atom = 7.09654
Neighbor list builds = 0
Dangerous builds = 0
LIGGGHTS finished

 timeStepFraction() = 1

Solver level total Eulerian momentum exchange:
  TotalForceImp:  (7.26651e-07 -2.21783e-07 -2.92318e-05)
  Warning, these values are based on latest Ksl and Us but prev. iteration U!

DILUPBiCGStab:  Solving for Ux, Initial residual = 1, Final residual = 0.000127607, No Iterations 1
DILUPBiCGStab:  Solving for Uy, Initial residual = 1, Final residual = 0.000151643, No Iterations 1
DILUPBiCGStab:  Solving for Uz, Initial residual = 1, Final residual = 0.000458322, No Iterations 1
DICPCG:  Solving for p, Initial residual = 1, Final residual = 0.0984006, No Iterations 314
DICPCG:  Solving for p, Initial residual = 0.0193567, Final residual = 0.00143482, No Iterations 1
time step continuity errors : sum local = 0.00011614, global = 1.05391e-08, cumulative = 1.05391e-08
DICPCG:  Solving for p, Initial residual = 0.00162085, Final residual = 0.000146464, No Iterations 12
DICPCG:  Solving for p, Initial residual = 0.000291501, Final residual = 2.68234e-05, No Iterations 247
time step continuity errors : sum local = 2.2127e-06, global = 7.71658e-09, cumulative = 1.82557e-08
DICPCG:  Solving for p, Initial residual = 0.000185177, Final residual = 1.79531e-05, No Iterations 3
DICPCG:  Solving for p, Initial residual = 2.18312e-05, Final residual = 2.17756e-06, No Iterations 147
time step continuity errors : sum local = 1.81681e-07, global = -1.73601e-08, cumulative = 8.95605e-10
DICPCG:  Solving for p, Initial residual = 1.08364e-05, Final residual = 1.07696e-06, No Iterations 4
DICPCG:  Solving for p, Initial residual = 1.51249e-06, Final residual = 9.98885e-07, No Iterations 1
time step continuity errors : sum local = 8.33447e-08, global = -1.76784e-08, cumulative = -1.67828e-08
ExecutionTime = 17.59 s  ClockTime = 18 s

Time = 0.0001

Courant Number mean: 0.0413542 max: 2.41151

 Coupling...
Starting up LIGGGHTS
Executing command: 'run 50    '
Setting up run at Wed Jul 29 23:22:29 2020

Memory usage per processor = 25.7245 Mbytes
    Step    Atoms         KinEng            rke         Volume       centerOf       dragtota       dragtota       dragtota 
  350051    15278  5.2404707e-10  4.1542477e-10         0.0051   0.0030943326  -8.923306e-07  2.3093403e-07   6.937527e-05 
CFD Coupling established at step 350100
  350100    15278  9.0139519e-10   4.348654e-10         0.0051   0.0030943244  -8.923306e-07  2.3093403e-07   6.937527e-05 
  350101    15278  9.1253295e-10  4.3649345e-10         0.0051   0.0030943241  -8.923306e-07  2.3093403e-07   6.937527e-05 
Loop time of 0.283607 on 4 procs for 50 steps with 15278 atoms, finish time Wed Jul 29 23:22:29 2020


Pair  time (%) = 0.107264 (37.8214)
Neigh time (%) = 0 (0)
Comm  time (%) = 0.00335944 (1.18454)
Outpt time (%) = 0.10233 (36.0816)
Other time (%) = 0.0706536 (24.9125)

Nlocal:    3819.5 ave 3850 max 3776 min
Histogram: 1 0 0 0 1 0 0 0 1 1
Nghost:    771 ave 783 max 766 min
Histogram: 2 1 0 0 0 0 0 0 0 1
Neighs:    27105.5 ave 27400 max 26830 min
Histogram: 1 0 0 0 2 0 0 0 0 1

Total # of neighbors = 108422
Ave neighs/atom = 7.09661
Neighbor list builds = 0
Dangerous builds = 0
Executing command: 'write_restart ../DEM/post/restart/liggghts.restartCFDEM'
System init for write_restart ...
LIGGGHTS finished

 timeStepFraction() = 1

Solver level total Eulerian momentum exchange:
  TotalForceImp:  (-0.00199491 0.000459117 -0.259592)
  Warning, these values are based on latest Ksl and Us but prev. iteration U!

DILUPBiCGStab:  Solving for Ux, Initial residual = 0.182284, Final residual = 0.000513174, No Iterations 1
DILUPBiCGStab:  Solving for Uy, Initial residual = 0.300578, Final residual = 0.000905441, No Iterations 1
DILUPBiCGStab:  Solving for Uz, Initial residual = 0.627443, Final residual = 0.000416235, No Iterations 1
DICPCG:  Solving for p, Initial residual = 0.01317, Final residual = 0.00122711, No Iterations 285
DICPCG:  Solving for p, Initial residual = 0.428933, Final residual = 0.0350707, No Iterations 1
time step continuity errors : sum local = 0.000121734, global = -1.28113e-07, cumulative = -1.44896e-07
DICPCG:  Solving for p, Initial residual = 0.092138, Final residual = 0.00897122, No Iterations 19
DICPCG:  Solving for p, Initial residual = 0.0188937, Final residual = 0.00180117, No Iterations 177
time step continuity errors : sum local = 4.30784e-06, global = -1.73189e-07, cumulative = -3.18085e-07
DICPCG:  Solving for p, Initial residual = 0.028704, Final residual = 0.00266082, No Iterations 11
DICPCG:  Solving for p, Initial residual = 0.00383317, Final residual = 0.000356836, No Iterations 269
time step continuity errors : sum local = 5.23509e-07, global = -2.25867e-09, cumulative = -3.20343e-07
DICPCG:  Solving for p, Initial residual = 0.00505913, Final residual = 0.000487679, No Iterations 6
DICPCG:  Solving for p, Initial residual = 0.000648996, Final residual = 9.14744e-07, No Iterations 327
time step continuity errors : sum local = 1.27213e-09, global = 6.60439e-12, cumulative = -3.20337e-07
ExecutionTime = 26.9 s  ClockTime = 27 s

Time = 0.00015

Courant Number mean: 0.0417212 max: 2.29492

 Coupling...
Starting up LIGGGHTS
Executing command: 'run 50    '
Setting up run at Wed Jul 29 23:22:38 2020

Memory usage per processor = 25.7245 Mbytes
    Step    Atoms         KinEng            rke         Volume       centerOf       dragtota       dragtota       dragtota 
  350101    15278  9.1253295e-10  4.3649345e-10         0.0051   0.0030943241   0.0074694812  -0.0015146685      1.1638384 
CFD Coupling established at step 350150
  350151    15278  8.7446258e-08  5.0861333e-10         0.0051   0.0030943829   0.0074694812  -0.0015146685      1.1638384 
Loop time of 0.272069 on 4 procs for 50 steps with 15278 atoms, finish time Wed Jul 29 23:22:38 2020


Pair  time (%) = 0.104004 (38.2271)
Neigh time (%) = 0 (0)
Comm  time (%) = 0.00330877 (1.21615)
Outpt time (%) = 0.026397 (9.70233)
Other time (%) = 0.138359 (50.8545)

Nlocal:    3819.5 ave 3850 max 3776 min
Histogram: 1 0 0 0 1 0 0 0 1 1
Nghost:    771 ave 783 max 766 min
Histogram: 2 1 0 0 0 0 0 0 0 1
Neighs:    27105.5 ave 27400 max 26830 min
Histogram: 1 0 0 0 2 0 0 0 0 1

Total # of neighbors = 108422
Ave neighs/atom = 7.09661
Neighbor list builds = 0
Dangerous builds = 0
Executing command: 'write_restart ../DEM/post/restart/liggghts.restartCFDEM'
System init for write_restart ...
LIGGGHTS finished

 timeStepFraction() = 1

Solver level total Eulerian momentum exchange:
  TotalForceImp:  (-0.00159719 -4.54166e-05 -0.209091)
  Warning, these values are based on latest Ksl and Us but prev. iteration U!

DILUPBiCGStab:  Solving for Ux, Initial residual = 0.00614781, Final residual = 4.44147e-05, No Iterations 1
DILUPBiCGStab:  Solving for Uy, Initial residual = 0.0556262, Final residual = 0.000411699, No Iterations 1
DILUPBiCGStab:  Solving for Uz, Initial residual = 0.00782844, Final residual = 6.47372e-05, No Iterations 1
DICPCG:  Solving for p, Initial residual = 0.425834, Final residual = 0.0423693, No Iterations 10
DICPCG:  Solving for p, Initial residual = 0.077257, Final residual = 0.00707461, No Iterations 30
time step continuity errors : sum local = 5.37297e-06, global = -1.08692e-06, cumulative = -1.40725e-06
DICPCG:  Solving for p, Initial residual = 0.032073, Final residual = 0.00314865, No Iterations 267
DICPCG:  Solving for p, Initial residual = 0.00849863, Final residual = 0.000809687, No Iterations 10
time step continuity errors : sum local = 8.44643e-07, global = -5.53899e-08, cumulative = -1.46264e-06
DICPCG:  Solving for p, Initial residual = 0.00336879, Final residual = 0.000323166, No Iterations 16
DICPCG:  Solving for p, Initial residual = 0.000630745, Final residual = 6.165e-05, No Iterations 125
time step continuity errors : sum local = 6.44141e-08, global = 9.04581e-09, cumulative = -1.4536e-06
DICPCG:  Solving for p, Initial residual = 0.0006459, Final residual = 6.41541e-05, No Iterations 8
DICPCG:  Solving for p, Initial residual = 9.91226e-05, Final residual = 9.48286e-07, No Iterations 287
time step continuity errors : sum local = 9.89473e-10, global = 1.39009e-12, cumulative = -1.4536e-06
ExecutionTime = 33.13 s  ClockTime = 33 s

Time = 0.0002

Courant Number mean: 0.041683 max: 2.43837

 Coupling...
Starting up LIGGGHTS
Executing command: 'run 50    '
Setting up run at Wed Jul 29 23:22:44 2020

Memory usage per processor = 25.7245 Mbytes
    Step    Atoms         KinEng            rke         Volume       centerOf       dragtota       dragtota       dragtota 
  350151    15278  8.7446258e-08  5.0861333e-10         0.0051   0.0030943829   0.0057975862 -0.00092502939     0.74036525 
CFD Coupling established at step 350200
  350200    15278  2.2228866e-07  1.1845236e-09         0.0051   0.0030945482   0.0057975862 -0.00092502939     0.74036525 
  350201    15278  2.2549114e-07  1.2151497e-09         0.0051   0.0030945524   0.0057975862 -0.00092502939     0.74036525 
Loop time of 0.2768 on 4 procs for 50 steps with 15278 atoms, finish time Wed Jul 29 23:22:45 2020


Pair  time (%) = 0.103482 (37.3852)
Neigh time (%) = 0 (0)
Comm  time (%) = 0.00335252 (1.21117)
Outpt time (%) = 0.107734 (38.9213)
Other time (%) = 0.0622311 (22.4823)

Nlocal:    3819.5 ave 3850 max 3776 min
Histogram: 1 0 0 0 1 0 0 0 1 1
Nghost:    771 ave 783 max 766 min
Histogram: 2 1 0 0 0 0 0 0 0 1
Neighs:    27105.8 ave 27400 max 26830 min
Histogram: 1 0 0 0 2 0 0 0 0 1

Total # of neighbors = 108423
Ave neighs/atom = 7.09667
Neighbor list builds = 0
Dangerous builds = 0
Executing command: 'write_restart ../DEM/post/restart/liggghts.restartCFDEM'
System init for write_restart ...
LIGGGHTS finished

 timeStepFraction() = 1

Solver level total Eulerian momentum exchange:
  TotalForceImp:  (-0.000960177 -0.000176877 -0.18338)
  Warning, these values are based on latest Ksl and Us but prev. iteration U!

DILUPBiCGStab:  Solving for Ux, Initial residual = 0.00331236, Final residual = 2.2937e-05, No Iterations 1
DILUPBiCGStab:  Solving for Uy, Initial residual = 0.0372979, Final residual = 0.000255532, No Iterations 1
DILUPBiCGStab:  Solving for Uz, Initial residual = 0.00283016, Final residual = 1.92801e-05, No Iterations 1
DICPCG:  Solving for p, Initial residual = 0.0851687, Final residual = 0.00808177, No Iterations 15
DICPCG:  Solving for p, Initial residual = 0.0154949, Final residual = 0.00154853, No Iterations 35
time step continuity errors : sum local = 1.60816e-06, global = 7.25102e-08, cumulative = -1.38109e-06
DICPCG:  Solving for p, Initial residual = 0.0100194, Final residual = 0.000995413, No Iterations 20
DICPCG:  Solving for p, Initial residual = 0.00189146, Final residual = 0.000180655, No Iterations 226
time step continuity errors : sum local = 1.85307e-07, global = 2.70717e-08, cumulative = -1.35401e-06
DICPCG:  Solving for p, Initial residual = 0.00202186, Final residual = 0.000185673, No Iterations 5
DICPCG:  Solving for p, Initial residual = 0.000278959, Final residual = 2.69704e-05, No Iterations 131
time step continuity errors : sum local = 2.69943e-08, global = 5.28771e-09, cumulative = -1.34873e-06
DICPCG:  Solving for p, Initial residual = 0.000450736, Final residual = 3.67286e-05, No Iterations 3
DICPCG:  Solving for p, Initial residual = 5.62154e-05, Final residual = 9.67992e-07, No Iterations 285
time step continuity errors : sum local = 9.6796e-10, global = 2.04812e-12, cumulative = -1.34872e-06
ExecutionTime = 40.13 s  ClockTime = 40 s

Time = 0.00025

Courant Number mean: 0.041645 max: 2.52432

 Coupling...
Starting up LIGGGHTS
Executing command: 'run 50    '
Setting up run at Wed Jul 29 23:22:51 2020

Memory usage per processor = 25.7245 Mbytes
    Step    Atoms         KinEng            rke         Volume       centerOf       dragtota       dragtota       dragtota 
  350201    15278  2.2549114e-07  1.2151497e-09         0.0051   0.0030945524   0.0048114649 -0.00078196621     0.63916916 
CFD Coupling established at step 350250
  350251    15278  3.6649565e-07    3.36684e-09         0.0051   0.0030947941   0.0048114649 -0.00078196621     0.63916916 
Loop time of 0.269069 on 4 procs for 50 steps with 15278 atoms, finish time Wed Jul 29 23:22:52 2020


Pair  time (%) = 0.103088 (38.3128)
Neigh time (%) = 0 (0)
Comm  time (%) = 0.00340968 (1.26721)
Outpt time (%) = 0.0269492 (10.0157)
Other time (%) = 0.135623 (50.4043)

Nlocal:    3819.5 ave 3850 max 3776 min
Histogram: 1 0 0 0 1 0 0 0 1 1
Nghost:    771 ave 783 max 766 min
Histogram: 2 1 0 0 0 0 0 0 0 1
Neighs:    27106 ave 27401 max 26830 min
Histogram: 1 0 0 0 2 0 0 0 0 1

Total # of neighbors = 108424
Ave neighs/atom = 7.09674
Neighbor list builds = 0
Dangerous builds = 0
Executing command: 'write_restart ../DEM/post/restart/liggghts.restartCFDEM'
System init for write_restart ...
LIGGGHTS finished

 timeStepFraction() = 1

Solver level total Eulerian momentum exchange:
  TotalForceImp:  (-0.00108792 -0.00023025 -0.169506)
  Warning, these values are based on latest Ksl and Us but prev. iteration U!

DILUPBiCGStab:  Solving for Ux, Initial residual = 0.00238581, Final residual = 1.42243e-05, No Iterations 1
DILUPBiCGStab:  Solving for Uy, Initial residual = 0.0311588, Final residual = 0.000189584, No Iterations 1
DILUPBiCGStab:  Solving for Uz, Initial residual = 0.00157175, Final residual = 9.99001e-06, No Iterations 1
DICPCG:  Solving for p, Initial residual = 0.0915276, Final residual = 0.00886901, No Iterations 7
DICPCG:  Solving for p, Initial residual = 0.0178542, Final residual = 0.00165504, No Iterations 25
time step continuity errors : sum local = 1.69593e-06, global = 5.68976e-08, cumulative = -1.29183e-06
DICPCG:  Solving for p, Initial residual = 0.0103726, Final residual = 0.000977726, No Iterations 16
DICPCG:  Solving for p, Initial residual = 0.00204905, Final residual = 0.000204743, No Iterations 83
time step continuity errors : sum local = 2.07145e-07, global = 4.27444e-08, cumulative = -1.24908e-06
DICPCG:  Solving for p, Initial residual = 0.00197925, Final residual = 0.000192398, No Iterations 5
DICPCG:  Solving for p, Initial residual = 0.00031431, Final residual = 3.00009e-05, No Iterations 262
time step continuity errors : sum local = 3.0258e-08, global = 1.58807e-10, cumulative = -1.24892e-06
DICPCG:  Solving for p, Initial residual = 0.000763313, Final residual = 6.96914e-05, No Iterations 2
DICPCG:  Solving for p, Initial residual = 9.40211e-05, Final residual = 9.66923e-07, No Iterations 287
time step continuity errors : sum local = 9.56804e-10, global = -4.10399e-12, cumulative = -1.24893e-06
ExecutionTime = 46.03 s  ClockTime = 46 s

Time = 0.0003

Courant Number mean: 0.0416095 max: 3.14329

 Coupling...
Starting up LIGGGHTS
Executing command: 'run 50    '
Setting up run at Wed Jul 29 23:22:57 2020

Memory usage per processor = 25.7245 Mbytes
    Step    Atoms         KinEng            rke         Volume       centerOf       dragtota       dragtota       dragtota 
  350251    15278  3.6649565e-07    3.36684e-09         0.0051   0.0030947941   0.0046603335 -0.00066329158     0.57917108 
CFD Coupling established at step 350300
  350300    15278  4.9937383e-07  5.8465328e-09         0.0051   0.0030950861   0.0046603335 -0.00066329158     0.57917108 
  350301    15278  5.0225653e-07  5.8986283e-09         0.0051   0.0030950925   0.0046603335 -0.00066329158     0.57917108 
Loop time of 0.26807 on 4 procs for 50 steps with 15278 atoms, finish time Wed Jul 29 23:22:58 2020


Pair  time (%) = 0.102858 (38.37)
Neigh time (%) = 0 (0)
Comm  time (%) = 0.00336903 (1.25677)
Outpt time (%) = 0.099758 (37.2134)
Other time (%) = 0.0620844 (23.1598)

Nlocal:    3819.5 ave 3850 max 3776 min
Histogram: 1 0 0 0 1 0 0 0 1 1
Nghost:    771 ave 783 max 766 min
Histogram: 2 1 0 0 0 0 0 0 0 1
Neighs:    27106 ave 27402 max 26830 min
Histogram: 1 0 0 0 2 0 0 0 0 1

Total # of neighbors = 108424
Ave neighs/atom = 7.09674
Neighbor list builds = 0
Dangerous builds = 0
Executing command: 'write_restart ../DEM/post/restart/liggghts.restartCFDEM'
System init for write_restart ...
LIGGGHTS finished

 timeStepFraction() = 1

Solver level total Eulerian momentum exchange:
  TotalForceImp:  (-0.000639064 -0.000325557 -0.161754)
  Warning, these values are based on latest Ksl and Us but prev. iteration U!

DILUPBiCGStab:  Solving for Ux, Initial residual = 0.00199521, Final residual = 1.22028e-05, No Iterations 1
DILUPBiCGStab:  Solving for Uy, Initial residual = 0.028408, Final residual = 0.000169272, No Iterations 1
DILUPBiCGStab:  Solving for Uz, Initial residual = 0.00109909, Final residual = 7.90089e-06, No Iterations 1
DICPCG:  Solving for p, Initial residual = 0.101213, Final residual = 0.00972321, No Iterations 4
DICPCG:  Solving for p, Initial residual = 0.0204333, Final residual = 0.00193016, No Iterations 19
time step continuity errors : sum local = 1.92811e-06, global = 3.76364e-08, cumulative = -1.21129e-06
DICPCG:  Solving for p, Initial residual = 0.0119897, Final residual = 0.00101936, No Iterations 12
DICPCG:  Solving for p, Initial residual = 0.00229476, Final residual = 0.000227625, No Iterations 46
time step continuity errors : sum local = 2.25499e-07, global = 3.4444e-08, cumulative = -1.17685e-06
DICPCG:  Solving for p, Initial residual = 0.0021411, Final residual = 0.000208183, No Iterations 6
DICPCG:  Solving for p, Initial residual = 0.000361663, Final residual = 3.54666e-05, No Iterations 265
time step continuity errors : sum local = 3.50656e-08, global = 4.73235e-10, cumulative = -1.17637e-06
DICPCG:  Solving for p, Initial residual = 0.000737484, Final residual = 5.1428e-05, No Iterations 3
DICPCG:  Solving for p, Initial residual = 8.48253e-05, Final residual = 9.68917e-07, No Iterations 291
time step continuity errors : sum local = 9.45082e-10, global = -5.77851e-12, cumulative = -1.17638e-06
ExecutionTime = 52.62 s  ClockTime = 53 s

Time = 0.00035

Courant Number mean: 0.0415796 max: 2.39321

 Coupling...
Starting up LIGGGHTS
Executing command: 'run 50    '
Setting up run at Wed Jul 29 23:23:04 2020

Memory usage per processor = 25.7245 Mbytes
    Step    Atoms         KinEng            rke         Volume       centerOf       dragtota       dragtota       dragtota 
  350301    15278  5.0225653e-07  5.8986283e-09         0.0051   0.0030950925   0.0037151902 -0.00033419041     0.54012919 
CFD Coupling established at step 350350
  350351    15278  6.3491499e-07  8.6178938e-09         0.0051    0.003095438   0.0037151902 -0.00033419041     0.54012919 
Loop time of 0.263025 on 4 procs for 50 steps with 15278 atoms, finish time Wed Jul 29 23:23:04 2020


Pair  time (%) = 0.103861 (39.4873)
Neigh time (%) = 0 (0)
Comm  time (%) = 0.00338846 (1.28827)
Outpt time (%) = 0.0262783 (9.9908)
Other time (%) = 0.129497 (49.2336)

Nlocal:    3819.5 ave 3850 max 3776 min
Histogram: 1 0 0 0 1 0 0 0 1 1
Nghost:    771 ave 783 max 766 min
Histogram: 2 1 0 0 0 0 0 0 0 1
Neighs:    27106.5 ave 27403 max 26830 min
Histogram: 1 0 0 0 2 0 0 0 0 1

Total # of neighbors = 108426
Ave neighs/atom = 7.09687
Neighbor list builds = 0
Dangerous builds = 0
Executing command: 'write_restart ../DEM/post/restart/liggghts.restartCFDEM'
System init for write_restart ...
LIGGGHTS finished

 timeStepFraction() = 1

Solver level total Eulerian momentum exchange:
  TotalForceImp:  (-0.000782834 -0.000440646 -0.157197)
  Warning, these values are based on latest Ksl and Us but prev. iteration U!

DILUPBiCGStab:  Solving for Ux, Initial residual = 0.00171081, Final residual = 1.09397e-05, No Iterations 1
DILUPBiCGStab:  Solving for Uy, Initial residual = 0.0264946, Final residual = 0.00016369, No Iterations 1
DILUPBiCGStab:  Solving for Uz, Initial residual = 0.000858742, Final residual = 5.7061e-06, No Iterations 1
DICPCG:  Solving for p, Initial residual = 0.110568, Final residual = 0.00962406, No Iterations 4
DICPCG:  Solving for p, Initial residual = 0.0210981, Final residual = 0.0019266, No Iterations 18
time step continuity errors : sum local = 1.92808e-06, global = 2.45008e-08, cumulative = -1.15188e-06
DICPCG:  Solving for p, Initial residual = 0.0123932, Final residual = 0.00108192, No Iterations 11
DICPCG:  Solving for p, Initial residual = 0.00239416, Final residual = 0.000237283, No Iterations 42
time step continuity errors : sum local = 2.35674e-07, global = 2.19169e-08, cumulative = -1.12996e-06
DICPCG:  Solving for p, Initial residual = 0.00213791, Final residual = 0.000206523, No Iterations 5
DICPCG:  Solving for p, Initial residual = 0.000356563, Final residual = 3.33155e-05, No Iterations 262
time step continuity errors : sum local = 3.30346e-08, global = 3.4728e-10, cumulative = -1.12961e-06
DICPCG:  Solving for p, Initial residual = 0.000633176, Final residual = 4.36111e-05, No Iterations 3
DICPCG:  Solving for p, Initial residual = 7.7164e-05, Final residual = 9.72132e-07, No Iterations 137
time step continuity errors : sum local = 9.55832e-10, global = -6.19862e-11, cumulative = -1.12968e-06
ExecutionTime = 57.6 s  ClockTime = 58 s

Time = 0.0004

Courant Number mean: 0.0415575 max: 3.45069

 Coupling...
Starting up LIGGGHTS
Executing command: 'run 50    '
Setting up run at Wed Jul 29 23:23:09 2020

Memory usage per processor = 25.7245 Mbytes
    Step    Atoms         KinEng            rke         Volume       centerOf       dragtota       dragtota       dragtota 
  350351    15278  6.3491499e-07  8.6178938e-09         0.0051    0.003095438   0.0040271793  2.8685309e-05     0.51713408 
CFD Coupling established at step 350400
  350400    15278  7.6238287e-07   1.240601e-08         0.0051   0.0030958167   0.0040271793  2.8685309e-05     0.51713408 
  350401    15278  7.6509704e-07  1.2494302e-08         0.0051   0.0030958248   0.0040271793  2.8685309e-05     0.51713408 
Loop time of 0.26378 on 4 procs for 50 steps with 15278 atoms, finish time Wed Jul 29 23:23:09 2020


Pair  time (%) = 0.103856 (39.3723)
Neigh time (%) = 0 (0)
Comm  time (%) = 0.00320029 (1.21324)
Outpt time (%) = 0.0996603 (37.7816)
Other time (%) = 0.0570632 (21.6329)

Nlocal:    3819.5 ave 3850 max 3776 min
Histogram: 1 0 0 0 1 0 0 0 1 1
Nghost:    771 ave 783 max 766 min
Histogram: 2 1 0 0 0 0 0 0 0 1
Neighs:    27107.2 ave 27403 max 26830 min
Histogram: 1 0 0 0 2 0 0 0 0 1

Total # of neighbors = 108429
Ave neighs/atom = 7.09707
Neighbor list builds = 0
Dangerous builds = 0
Executing command: 'write_restart ../DEM/post/restart/liggghts.restartCFDEM'
System init for write_restart ...
LIGGGHTS finished

 timeStepFraction() = 1

Solver level total Eulerian momentum exchange:
  TotalForceImp:  (-0.00358451 -0.00100038 -0.157937)
  Warning, these values are based on latest Ksl and Us but prev. iteration U!

DILUPBiCGStab:  Solving for Ux, Initial residual = 0.00179132, Final residual = 9.86132e-06, No Iterations 1
DILUPBiCGStab:  Solving for Uy, Initial residual = 0.0272659, Final residual = 0.000154061, No Iterations 1
DILUPBiCGStab:  Solving for Uz, Initial residual = 0.000957708, Final residual = 4.81613e-06, No Iterations 1
DICPCG:  Solving for p, Initial residual = 0.124429, Final residual = 0.0106622, No Iterations 3
DICPCG:  Solving for p, Initial residual = 0.0236476, Final residual = 0.00220089, No Iterations 11
time step continuity errors : sum local = 2.17648e-06, global = 1.95485e-08, cumulative = -1.11013e-06
DICPCG:  Solving for p, Initial residual = 0.0142235, Final residual = 0.00140158, No Iterations 6
DICPCG:  Solving for p, Initial residual = 0.00272015, Final residual = 0.000255003, No Iterations 22
time step continuity errors : sum local = 2.51743e-07, global = 1.42732e-08, cumulative = -1.09586e-06
DICPCG:  Solving for p, Initial residual = 0.00227636, Final residual = 0.000218917, No Iterations 7
DICPCG:  Solving for p, Initial residual = 0.000419055, Final residual = 4.12181e-05, No Iterations 81
time step continuity errors : sum local = 4.06681e-08, global = 9.28606e-09, cumulative = -1.08657e-06
DICPCG:  Solving for p, Initial residual = 0.000584912, Final residual = 5.24135e-05, No Iterations 3
DICPCG:  Solving for p, Initial residual = 8.76638e-05, Final residual = 9.45173e-07, No Iterations 288
time step continuity errors : sum local = 9.32018e-10, global = 3.71566e-12, cumulative = -1.08657e-06
ExecutionTime = 62.94 s  ClockTime = 63 s

Time = 0.00045

Courant Number mean: 0.0415488 max: 28.3597

 Coupling...
Starting up LIGGGHTS
Executing command: 'run 50    '
Setting up run at Wed Jul 29 23:23:14 2020

Memory usage per processor = 25.7245 Mbytes
    Step    Atoms         KinEng            rke         Volume       centerOf       dragtota       dragtota       dragtota 
  350401    15278  7.6509704e-07  1.2494302e-08         0.0051   0.0030958248   0.0070150264   -0.001672974     0.50699026 
CFD Coupling established at step 350450
  350451    15278  9.6768465e-07  1.7182121e-08         0.0051   0.0030962502   0.0070150264   -0.001672974     0.50699026 
Loop time of 0.257404 on 4 procs for 50 steps with 15278 atoms, finish time Wed Jul 29 23:23:15 2020


Pair  time (%) = 0.101266 (39.3413)
Neigh time (%) = 0 (0)
Comm  time (%) = 0.00318432 (1.23709)
Outpt time (%) = 0.026079 (10.1316)
Other time (%) = 0.126874 (49.29)

Nlocal:    3819.5 ave 3850 max 3776 min
Histogram: 1 0 0 0 1 0 0 0 1 1
Nghost:    771 ave 783 max 766 min
Histogram: 2 1 0 0 0 0 0 0 0 1
Neighs:    27108.5 ave 27404 max 26829 min
Histogram: 1 0 0 0 2 0 0 0 0 1

Total # of neighbors = 108434
Ave neighs/atom = 7.09739
Neighbor list builds = 0
Dangerous builds = 0
Executing command: 'write_restart ../DEM/post/restart/liggghts.restartCFDEM'
System init for write_restart ...
LIGGGHTS finished

 timeStepFraction() = 1

Solver level total Eulerian momentum exchange:
  TotalForceImp:  (-0.000596087 -0.000226237 -0.146473)
  Warning, these values are based on latest Ksl and Us but prev. iteration U!

DILUPBiCGStab:  Solving for Ux, Initial residual = 0.00160342, Final residual = 4.24657e-05, No Iterations 1
DILUPBiCGStab:  Solving for Uy, Initial residual = 0.0259524, Final residual = 0.00127496, No Iterations 1
DILUPBiCGStab:  Solving for Uz, Initial residual = 0.000809488, Final residual = 1.0166e-05, No Iterations 1
DICPCG:  Solving for p, Initial residual = 0.128014, Final residual = 0.00996364, No Iterations 4
DICPCG:  Solving for p, Initial residual = 0.0243589, Final residual = 0.00211312, No Iterations 10
time step continuity errors : sum local = 2.07972e-06, global = 1.26431e-08, cumulative = -1.07392e-06
DICPCG:  Solving for p, Initial residual = 0.0144595, Final residual = 0.0012542, No Iterations 6
DICPCG:  Solving for p, Initial residual = 0.00267684, Final residual = 0.000250963, No Iterations 23
time step continuity errors : sum local = 2.45992e-07, global = 8.49857e-09, cumulative = -1.06542e-06
DICPCG:  Solving for p, Initial residual = 0.00265465, Final residual = 0.000245381, No Iterations 4
DICPCG:  Solving for p, Initial residual = 0.000457541, Final residual = 4.55936e-05, No Iterations 46
time step continuity errors : sum local = 4.46489e-08, global = 7.25642e-09, cumulative = -1.05817e-06
DICPCG:  Solving for p, Initial residual = 0.000834512, Final residual = 7.61782e-05, No Iterations 4
DICPCG:  Solving for p, Initial residual = 0.000156434, Final residual = 9.68599e-07, No Iterations 305
time step continuity errors : sum local = 9.48358e-10, global = 4.12644e-12, cumulative = -1.05816e-06
ExecutionTime = 67.25 s  ClockTime = 68 s

Time = 0.0005

Courant Number mean: 0.0415346 max: 2.85904

 Coupling...
Starting up LIGGGHTS
Executing command: 'run 50    '
Setting up run at Wed Jul 29 23:23:19 2020

Memory usage per processor = 25.7245 Mbytes
    Step    Atoms         KinEng            rke         Volume       centerOf       dragtota       dragtota       dragtota 
  350451    15278  9.6768465e-07  1.7182121e-08         0.0051   0.0030962502   0.0037406971  0.00035475286     0.49288427 
CFD Coupling established at step 350500
  350500    15278  1.0495831e-06  3.4106008e-08         0.0051   0.0030967027   0.0037406971  0.00035475286     0.49288427 
  350501    15278  1.0522486e-06  3.4516988e-08         0.0051   0.0030967123   0.0037406971  0.00035475286     0.49288427 
Loop time of 0.280337 on 4 procs for 50 steps with 15278 atoms, finish time Wed Jul 29 23:23:19 2020


Pair  time (%) = 0.107469 (38.3358)
Neigh time (%) = 0 (0)
Comm  time (%) = 0.00349706 (1.24745)
Outpt time (%) = 0.10053 (35.8604)
Other time (%) = 0.0688405 (24.5564)

Nlocal:    3819.5 ave 3850 max 3776 min
Histogram: 1 0 0 0 1 0 0 0 1 1
Nghost:    771 ave 783 max 766 min
Histogram: 2 1 0 0 0 0 0 0 0 1
Neighs:    27109 ave 27405 max 26830 min
Histogram: 1 0 0 0 2 0 0 0 0 1

Total # of neighbors = 108436
Ave neighs/atom = 7.09753
Neighbor list builds = 0
Dangerous builds = 0
Executing command: 'write_restart ../DEM/post/restart/liggghts.restartCFDEM'
System init for write_restart ...
LIGGGHTS finished

 timeStepFraction() = 1

Solver level total Eulerian momentum exchange:
  TotalForceImp:  (0.000247377 0.00260962 -0.176499)
  Warning, these values are based on latest Ksl and Us but prev. iteration U!

DILUPBiCGStab:  Solving for Ux, Initial residual = 0.00169217, Final residual = 1.0171e-05, No Iterations 1
DILUPBiCGStab:  Solving for Uy, Initial residual = 0.0292535, Final residual = 0.000165239, No Iterations 1
DILUPBiCGStab:  Solving for Uz, Initial residual = 0.00147125, Final residual = 4.45602e-06, No Iterations 1
DICPCG:  Solving for p, Initial residual = 0.140053, Final residual = 0.0118661, No Iterations 4
DICPCG:  Solving for p, Initial residual = 0.0262934, Final residual = 0.00220321, No Iterations 10
time step continuity errors : sum local = 2.17027e-06, global = 1.48005e-08, cumulative = -1.04336e-06
DICPCG:  Solving for p, Initial residual = 0.0151144, Final residual = 0.00128395, No Iterations 7
DICPCG:  Solving for p, Initial residual = 0.00286006, Final residual = 0.000270778, No Iterations 21
time step continuity errors : sum local = 2.65521e-07, global = 1.15284e-08, cumulative = -1.03183e-06
DICPCG:  Solving for p, Initial residual = 0.00264656, Final residual = 0.000233899, No Iterations 5
DICPCG:  Solving for p, Initial residual = 0.00045043, Final residual = 4.44686e-05, No Iterations 78
time step continuity errors : sum local = 4.35666e-08, global = 9.4969e-09, cumulative = -1.02234e-06
DICPCG:  Solving for p, Initial residual = 0.000772122, Final residual = 6.8692e-05, No Iterations 4
DICPCG:  Solving for p, Initial residual = 0.000135226, Final residual = 9.04389e-07, No Iterations 283
time step continuity errors : sum local = 8.8555e-10, global = -1.12094e-12, cumulative = -1.02234e-06
ExecutionTime = 72.61 s  ClockTime = 73 s

Time = 0.00055

Courant Number mean: 0.0415234 max: 2.30915

 Coupling...
Starting up LIGGGHTS
Executing command: 'run 50    '
Setting up run at Wed Jul 29 23:23:24 2020

Memory usage per processor = 25.7245 Mbytes
    Step    Atoms         KinEng            rke         Volume       centerOf       dragtota       dragtota       dragtota 
  350501    15278  1.0522486e-06  3.4516988e-08         0.0051   0.0030967123   0.0043927775  -0.0045375841     0.51733496 
CFD Coupling established at step 350550
  350551    15278  1.6714071e-06   4.137534e-08         0.0051   0.0030972114   0.0043927775  -0.0045375841     0.51733496 
Loop time of 0.268363 on 4 procs for 50 steps with 15278 atoms, finish time Wed Jul 29 23:23:24 2020


Pair  time (%) = 0.10462 (38.9846)
Neigh time (%) = 0 (0)
Comm  time (%) = 0.00338387 (1.26093)
Outpt time (%) = 0.0265206 (9.88233)
Other time (%) = 0.133839 (49.8722)

Nlocal:    3819.5 ave 3850 max 3776 min
Histogram: 1 0 0 0 1 0 0 0 1 1
Nghost:    771 ave 783 max 766 min
Histogram: 2 1 0 0 0 0 0 0 0 1
Neighs:    27109.5 ave 27405 max 26830 min
Histogram: 1 0 0 0 2 0 0 0 0 1

Total # of neighbors = 108438
Ave neighs/atom = 7.09766
Neighbor list builds = 0
Dangerous builds = 0
Executing command: 'write_restart ../DEM/post/restart/liggghts.restartCFDEM'
System init for write_restart ...
LIGGGHTS finished

 timeStepFraction() = 1

Solver level total Eulerian momentum exchange:
  TotalForceImp:  (0.000806619 -0.00199238 -0.151758)
  Warning, these values are based on latest Ksl and Us but prev. iteration U!

DILUPBiCGStab:  Solving for Ux, Initial residual = 0.00157166, Final residual = 9.97167e-06, No Iterations 1
DILUPBiCGStab:  Solving for Uy, Initial residual = 0.0257815, Final residual = 0.000157228, No Iterations 1
DILUPBiCGStab:  Solving for Uz, Initial residual = 0.00105184, Final residual = 4.24579e-06, No Iterations 1
DICPCG:  Solving for p, Initial residual = 0.147718, Final residual = 0.0144871, No Iterations 3
DICPCG:  Solving for p, Initial residual = 0.0284605, Final residual = 0.00254937, No Iterations 11
time step continuity errors : sum local = 2.49179e-06, global = 9.24148e-09, cumulative = -1.0131e-06
DICPCG:  Solving for p, Initial residual = 0.0159407, Final residual = 0.00135927, No Iterations 7
DICPCG:  Solving for p, Initial residual = 0.00288886, Final residual = 0.000288216, No Iterations 18
time step continuity errors : sum local = 2.80412e-07, global = 6.75963e-09, cumulative = -1.00634e-06
DICPCG:  Solving for p, Initial residual = 0.00241905, Final residual = 0.000211912, No Iterations 10
DICPCG:  Solving for p, Initial residual = 0.000431169, Final residual = 4.2953e-05, No Iterations 45
time step continuity errors : sum local = 4.1767e-08, global = 5.52211e-09, cumulative = -1.00082e-06
DICPCG:  Solving for p, Initial residual = 0.000627296, Final residual = 5.4066e-05, No Iterations 3
DICPCG:  Solving for p, Initial residual = 9.28869e-05, Final residual = 9.64577e-07, No Iterations 302
time step continuity errors : sum local = 9.37708e-10, global = 2.42805e-12, cumulative = -1.00081e-06
ExecutionTime = 76.89 s  ClockTime = 77 s

Time = 0.0006

Courant Number mean: 0.0415136 max: 2.58067

 Coupling...
Starting up LIGGGHTS
Executing command: 'run 50    '
Setting up run at Wed Jul 29 23:23:28 2020

Memory usage per processor = 25.7245 Mbytes
    Step    Atoms         KinEng            rke         Volume       centerOf       dragtota       dragtota       dragtota 
  350551    15278  1.6714071e-06   4.137534e-08         0.0051   0.0030972114   0.0028489531    0.002057041     0.48703057 
CFD Coupling established at step 350600
  350600    15278  1.6822994e-06  1.4366584e-07         0.0051    0.003097736   0.0028489531    0.002057041     0.48703057 
  350601    15278  1.6917224e-06  1.4398938e-07         0.0051   0.0030977471   0.0028489531    0.002057041     0.48703057 
Loop time of 0.262231 on 4 procs for 50 steps with 15278 atoms, finish time Wed Jul 29 23:23:29 2020


Pair  time (%) = 0.102641 (39.1415)
Neigh time (%) = 0 (0)
Comm  time (%) = 0.00346076 (1.31974)
Outpt time (%) = 0.0987623 (37.6623)
Other time (%) = 0.0573671 (21.8765)

Nlocal:    3819.5 ave 3850 max 3776 min
Histogram: 1 0 0 0 1 0 0 0 1 1
Nghost:    771.25 ave 783 max 766 min
Histogram: 2 0 1 0 0 0 0 0 0 1
Neighs:    27109.8 ave 27407 max 26830 min
Histogram: 1 0 0 0 2 0 0 0 0 1

Total # of neighbors = 108439
Ave neighs/atom = 7.09772
Neighbor list builds = 0
Dangerous builds = 0
Executing command: 'write_restart ../DEM/post/restart/liggghts.restartCFDEM'
System init for write_restart ...
LIGGGHTS finished

 timeStepFraction() = 1

Solver level total Eulerian momentum exchange:
  TotalForceImp:  (0.000258461 -0.00275159 -0.156576)
  Warning, these values are based on latest Ksl and Us but prev. iteration U!

DILUPBiCGStab:  Solving for Ux, Initial residual = 0.0016193, Final residual = 8.82647e-06, No Iterations 1
DILUPBiCGStab:  Solving for Uy, Initial residual = 0.0304186, Final residual = 0.000148719, No Iterations 1
DILUPBiCGStab:  Solving for Uz, Initial residual = 0.0010164, Final residual = 3.64226e-06, No Iterations 1
DICPCG:  Solving for p, Initial residual = 0.166075, Final residual = 0.015998, No Iterations 6
DICPCG:  Solving for p, Initial residual = 0.0376721, Final residual = 0.00359594, No Iterations 12
time step continuity errors : sum local = 3.64539e-06, global = 5.49158e-09, cumulative = -9.95321e-07
DICPCG:  Solving for p, Initial residual = 0.0204098, Final residual = 0.00197319, No Iterations 9
DICPCG:  Solving for p, Initial residual = 0.00417672, Final residual = 0.000390523, No Iterations 29
time step continuity errors : sum local = 3.94916e-07, global = 4.44296e-09, cumulative = -9.90878e-07
DICPCG:  Solving for p, Initial residual = 0.00339327, Final residual = 0.000331343, No Iterations 11
DICPCG:  Solving for p, Initial residual = 0.000623371, Final residual = 6.09187e-05, No Iterations 73
time step continuity errors : sum local = 6.14674e-08, global = 3.3691e-09, cumulative = -9.87509e-07
DICPCG:  Solving for p, Initial residual = 0.00085891, Final residual = 7.34565e-05, No Iterations 3
DICPCG:  Solving for p, Initial residual = 0.000122306, Final residual = 9.26867e-07, No Iterations 290
time step continuity errors : sum local = 9.3459e-10, global = -6.47909e-12, cumulative = -9.87516e-07
ExecutionTime = 82.4 s  ClockTime = 83 s

Time = 0.00065

Courant Number mean: 0.0415493 max: 50.179

 Coupling...
Starting up LIGGGHTS
Executing command: 'run 50    '
Setting up run at Wed Jul 29 23:23:34 2020

Memory usage per processor = 25.7245 Mbytes
    Step    Atoms         KinEng            rke         Volume       centerOf       dragtota       dragtota       dragtota 
  350601    15278  1.6917224e-06  1.4398938e-07         0.0051   0.0030977471   0.0015455864   0.0046877102     0.48970313 
CFD Coupling established at step 350650
  350651    15278  2.0156318e-06  1.0022711e-07         0.0051   0.0030983176   0.0015455864   0.0046877102     0.48970313 
Loop time of 0.264496 on 4 procs for 50 steps with 15278 atoms, finish time Wed Jul 29 23:23:34 2020


Pair  time (%) = 0.102898 (38.9034)
Neigh time (%) = 0 (0)
Comm  time (%) = 0.00338107 (1.27831)
Outpt time (%) = 0.0269477 (10.1883)
Other time (%) = 0.131269 (49.63)

Nlocal:    3819.5 ave 3850 max 3776 min
Histogram: 1 0 0 0 1 0 0 0 1 1
Nghost:    771.25 ave 783 max 766 min
Histogram: 2 0 1 0 0 0 0 0 0 1
Neighs:    27110.2 ave 27409 max 26830 min
Histogram: 1 0 0 0 2 0 0 0 0 1

Total # of neighbors = 108441
Ave neighs/atom = 7.09785
Neighbor list builds = 0
Dangerous builds = 0
Executing command: 'write_restart ../DEM/post/restart/liggghts.restartCFDEM'
System init for write_restart ...
LIGGGHTS finished

 timeStepFraction() = 1

Solver level total Eulerian momentum exchange:
  TotalForceImp:  (-0.00347153 0.00358339 -0.130227)
  Warning, these values are based on latest Ksl and Us but prev. iteration U!

DILUPBiCGStab:  Solving for Ux, Initial residual = 0.00240387, Final residual = 5.91928e-05, No Iterations 1
DILUPBiCGStab:  Solving for Uy, Initial residual = 0.044136, Final residual = 0.0010461, No Iterations 1
DILUPBiCGStab:  Solving for Uz, Initial residual = 0.0016123, Final residual = 3.61872e-05, No Iterations 1
DICPCG:  Solving for p, Initial residual = 0.186207, Final residual = 0.017041, No Iterations 6
DICPCG:  Solving for p, Initial residual = 0.0392487, Final residual = 0.00380824, No Iterations 12
time step continuity errors : sum local = 3.99128e-06, global = 1.39792e-09, cumulative = -9.86118e-07
DICPCG:  Solving for p, Initial residual = 0.0238843, Final residual = 0.00229757, No Iterations 6
DICPCG:  Solving for p, Initial residual = 0.00460245, Final residual = 0.000434869, No Iterations 22
time step continuity errors : sum local = 4.54146e-07, global = 8.92949e-10, cumulative = -9.85225e-07
DICPCG:  Solving for p, Initial residual = 0.00488453, Final residual = 0.000450868, No Iterations 4
DICPCG:  Solving for p, Initial residual = 0.000783263, Final residual = 7.42786e-05, No Iterations 28
time step continuity errors : sum local = 7.75191e-08, global = 6.63854e-10, cumulative = -9.84561e-07
DICPCG:  Solving for p, Initial residual = 0.00147628, Final residual = 0.000114424, No Iterations 4
DICPCG:  Solving for p, Initial residual = 0.000216704, Final residual = 9.21491e-07, No Iterations 299
time step continuity errors : sum local = 9.61283e-10, global = -1.45176e-12, cumulative = -9.84562e-07
ExecutionTime = 86.62 s  ClockTime = 87 s

Time = 0.0007

Courant Number mean: 0.0415321 max: 18.3723

 Coupling...
Starting up LIGGGHTS
Executing command: 'run 50    '
Setting up run at Wed Jul 29 23:23:38 2020

Memory usage per processor = 25.7245 Mbytes
    Step    Atoms         KinEng            rke         Volume       centerOf       dragtota       dragtota       dragtota 
  350651    15278  2.0156318e-06  1.0022711e-07         0.0051   0.0030983176   0.0040239279  -0.0021003514     0.44057986 
CFD Coupling established at step 350700
  350700    15278  2.1256995e-06   1.787852e-07         0.0051   0.0030989076   0.0040239279  -0.0021003514     0.44057986 
  350701    15278  2.1335364e-06  1.8206045e-07         0.0051   0.0030989199   0.0040239279  -0.0021003514     0.44057986 
Loop time of 0.253959 on 4 procs for 50 steps with 15278 atoms, finish time Wed Jul 29 23:23:38 2020


Pair  time (%) = 0.0984477 (38.7652)
Neigh time (%) = 0 (0)
Comm  time (%) = 0.00313306 (1.23369)
Outpt time (%) = 0.0982777 (38.6983)
Other time (%) = 0.0541006 (21.3029)

Nlocal:    3819.5 ave 3850 max 3776 min
Histogram: 1 0 0 0 1 0 0 0 1 1
Nghost:    771.25 ave 783 max 766 min
Histogram: 2 0 1 0 0 0 0 0 0 1
Neighs:    27110.8 ave 27408 max 26831 min
Histogram: 1 0 0 0 2 0 0 0 0 1

Total # of neighbors = 108443
Ave neighs/atom = 7.09798
Neighbor list builds = 0
Dangerous builds = 0
Executing command: 'write_restart ../DEM/post/restart/liggghts.restartCFDEM'
System init for write_restart ...
LIGGGHTS finished

 timeStepFraction() = 1

Solver level total Eulerian momentum exchange:
  TotalForceImp:  (7.06863e-06 -0.00190201 -0.134483)
  Warning, these values are based on latest Ksl and Us but prev. iteration U!

DILUPBiCGStab:  Solving for Ux, Initial residual = 0.00258607, Final residual = 3.57646e-05, No Iterations 1
DILUPBiCGStab:  Solving for Uy, Initial residual = 0.0440371, Final residual = 0.000406106, No Iterations 1
DILUPBiCGStab:  Solving for Uz, Initial residual = 0.00181039, Final residual = 6.5965e-05, No Iterations 1
DICPCG:  Solving for p, Initial residual = 0.182849, Final residual = 0.0182706, No Iterations 5
DICPCG:  Solving for p, Initial residual = 0.0385815, Final residual = 0.00377321, No Iterations 15
time step continuity errors : sum local = 3.80993e-06, global = 1.0813e-08, cumulative = -9.73749e-07
DICPCG:  Solving for p, Initial residual = 0.0217292, Final residual = 0.00216771, No Iterations 8
DICPCG:  Solving for p, Initial residual = 0.00436003, Final residual = 0.000415134, No Iterations 23
time step continuity errors : sum local = 4.16628e-07, global = 9.34972e-09, cumulative = -9.644e-07
DICPCG:  Solving for p, Initial residual = 0.00367534, Final residual = 0.00036021, No Iterations 13
DICPCG:  Solving for p, Initial residual = 0.000779087, Final residual = 7.76768e-05, No Iterations 37
time step continuity errors : sum local = 7.79167e-08, global = 9.24153e-09, cumulative = -9.55158e-07
DICPCG:  Solving for p, Initial residual = 0.000939243, Final residual = 9.23915e-05, No Iterations 9
DICPCG:  Solving for p, Initial residual = 0.000167846, Final residual = 9.49917e-07, No Iterations 303
time step continuity errors : sum local = 9.52776e-10, global = -4.84984e-12, cumulative = -9.55163e-07
ExecutionTime = 92.05 s  ClockTime = 92 s

Time = 0.00075

Courant Number mean: 0.0415107 max: 2.43317

 Coupling...
Starting up LIGGGHTS
Executing command: 'run 50    '
Setting up run at Wed Jul 29 23:23:43 2020

Memory usage per processor = 25.7245 Mbytes
    Step    Atoms         KinEng            rke         Volume       centerOf       dragtota       dragtota       dragtota 
  350701    15278  2.1335364e-06  1.8206045e-07         0.0051   0.0030989199   0.0049671643   0.0062233031     0.45349095 
CFD Coupling established at step 350750
  350751    15278     2.4314e-06  1.9029623e-07         0.0051   0.0030995518   0.0049671643   0.0062233031     0.45349095 
Loop time of 0.263635 on 4 procs for 50 steps with 15278 atoms, finish time Wed Jul 29 23:23:44 2020


Pair  time (%) = 0.100378 (38.0745)
Neigh time (%) = 0 (0)
Comm  time (%) = 0.00336522 (1.27647)
Outpt time (%) = 0.0270492 (10.2601)
Other time (%) = 0.132843 (50.3889)

Nlocal:    3819.5 ave 3850 max 3776 min
Histogram: 1 0 0 0 1 0 0 0 1 1
Nghost:    771 ave 783 max 766 min
Histogram: 2 1 0 0 0 0 0 0 0 1
Neighs:    27112 ave 27409 max 26833 min
Histogram: 1 0 0 0 2 0 0 0 0 1

Total # of neighbors = 108448
Ave neighs/atom = 7.09831
Neighbor list builds = 0
Dangerous builds = 0
Executing command: 'write_restart ../DEM/post/restart/liggghts.restartCFDEM'
System init for write_restart ...
LIGGGHTS finished

 timeStepFraction() = 1

Solver level total Eulerian momentum exchange:
  TotalForceImp:  (-0.00114039 -0.000540803 -0.134666)
  Warning, these values are based on latest Ksl and Us but prev. iteration U!

DILUPBiCGStab:  Solving for Ux, Initial residual = 0.00155488, Final residual = 1.1429e-05, No Iterations 1
DILUPBiCGStab:  Solving for Uy, Initial residual = 0.0261817, Final residual = 0.000182883, No Iterations 1
DILUPBiCGStab:  Solving for Uz, Initial residual = 0.000802074, Final residual = 4.82999e-06, No Iterations 1
DICPCG:  Solving for p, Initial residual = 0.179968, Final residual = 0.0167552, No Iterations 4
DICPCG:  Solving for p, Initial residual = 0.0331515, Final residual = 0.00314451, No Iterations 13
time step continuity errors : sum local = 3.16559e-06, global = 1.45285e-09, cumulative = -9.5371e-07
DICPCG:  Solving for p, Initial residual = 0.0185256, Final residual = 0.00170368, No Iterations 8
DICPCG:  Solving for p, Initial residual = 0.00343138, Final residual = 0.000326928, No Iterations 19
time step continuity errors : sum local = 3.26899e-07, global = 1.74997e-09, cumulative = -9.5196e-07
DICPCG:  Solving for p, Initial residual = 0.00283956, Final residual = 0.000274905, No Iterations 12
DICPCG:  Solving for p, Initial residual = 0.000513789, Final residual = 4.759e-05, No Iterations 74
time step continuity errors : sum local = 4.75498e-08, global = 1.22422e-09, cumulative = -9.50736e-07
DICPCG:  Solving for p, Initial residual = 0.000763885, Final residual = 6.02349e-05, No Iterations 3
DICPCG:  Solving for p, Initial residual = 0.000105373, Final residual = 9.36684e-07, No Iterations 292
time step continuity errors : sum local = 9.35367e-10, global = 1.94449e-12, cumulative = -9.50734e-07
ExecutionTime = 96.53 s  ClockTime = 97 s

Time = 0.0008

Courant Number mean: 0.041508 max: 2.78785

 Coupling...
Starting up LIGGGHTS
Executing command: 'run 50    '
Setting up run at Wed Jul 29 23:23:48 2020

Memory usage per processor = 25.7245 Mbytes
    Step    Atoms         KinEng            rke         Volume       centerOf       dragtota       dragtota       dragtota 
  350751    15278     2.4314e-06  1.9029623e-07         0.0051   0.0030995518   0.0041846054 -0.00056248743     0.45110324 
CFD Coupling established at step 350800
  350800    15278  2.4947453e-06   2.029759e-07         0.0051   0.0031002001   0.0041846054 -0.00056248743     0.45110324 
  350801    15278  2.4975213e-06  2.0336191e-07         0.0051   0.0031002137   0.0041846054 -0.00056248743     0.45110324 
Loop time of 0.262873 on 4 procs for 50 steps with 15278 atoms, finish time Wed Jul 29 23:23:48 2020


Pair  time (%) = 0.0994099 (37.8167)
Neigh time (%) = 0 (0)
Comm  time (%) = 0.00315648 (1.20076)
Outpt time (%) = 0.100983 (38.4152)
Other time (%) = 0.0593231 (22.5672)

Nlocal:    3819.5 ave 3850 max 3776 min
Histogram: 1 0 0 0 1 0 0 0 1 1
Nghost:    771 ave 783 max 766 min
Histogram: 2 1 0 0 0 0 0 0 0 1
Neighs:    27111 ave 27408 max 26833 min
Histogram: 1 0 0 0 2 0 0 0 0 1

Total # of neighbors = 108444
Ave neighs/atom = 7.09805
Neighbor list builds = 0
Dangerous builds = 0
Executing command: 'write_restart ../DEM/post/restart/liggghts.restartCFDEM'
System init for write_restart ...
LIGGGHTS finished

 timeStepFraction() = 1

Solver level total Eulerian momentum exchange:
  TotalForceImp:  (-0.00544272 0.000142454 -0.153056)
  Warning, these values are based on latest Ksl and Us but prev. iteration U!

DILUPBiCGStab:  Solving for Ux, Initial residual = 0.00167131, Final residual = 1.01999e-05, No Iterations 1
DILUPBiCGStab:  Solving for Uy, Initial residual = 0.0270369, Final residual = 0.000171137, No Iterations 1
DILUPBiCGStab:  Solving for Uz, Initial residual = 0.00115558, Final residual = 4.44926e-06, No Iterations 1
DICPCG:  Solving for p, Initial residual = 0.175503, Final residual = 0.0148462, No Iterations 4
DICPCG:  Solving for p, Initial residual = 0.0302855, Final residual = 0.0028997, No Iterations 11
time step continuity errors : sum local = 2.91316e-06, global = 2.03686e-09, cumulative = -9.48697e-07
DICPCG:  Solving for p, Initial residual = 0.0179217, Final residual = 0.00146496, No Iterations 7
DICPCG:  Solving for p, Initial residual = 0.00314858, Final residual = 0.000300172, No Iterations 19
time step continuity errors : sum local = 3.00308e-07, global = 2.07795e-10, cumulative = -9.48489e-07
DICPCG:  Solving for p, Initial residual = 0.00286804, Final residual = 0.000276572, No Iterations 5
DICPCG:  Solving for p, Initial residual = 0.000486327, Final residual = 4.80465e-05, No Iterations 44
time step continuity errors : sum local = 4.80395e-08, global = -8.88436e-11, cumulative = -9.48578e-07
DICPCG:  Solving for p, Initial residual = 0.000780062, Final residual = 5.51353e-05, No Iterations 3
DICPCG:  Solving for p, Initial residual = 0.00010465, Final residual = 9.91929e-07, No Iterations 210
time step continuity errors : sum local = 9.91588e-10, global = 8.74358e-11, cumulative = -9.48491e-07
ExecutionTime = 101.19 s  ClockTime = 102 s

Time = 0.00085

Courant Number mean: 0.0415075 max: 2.9072

 Coupling...
Starting up LIGGGHTS
Executing command: 'run 50    '
Setting up run at Wed Jul 29 23:23:53 2020

Memory usage per processor = 25.7245 Mbytes
    Step    Atoms         KinEng            rke         Volume       centerOf       dragtota       dragtota       dragtota 
  350801    15278  2.4975213e-06  2.0336191e-07         0.0051   0.0031002137   0.0075635939  -0.0004673517     0.46478603 
CFD Coupling established at step 350850
  350851    15278   2.815919e-06  2.0476751e-07         0.0051   0.0031009063   0.0075635939  -0.0004673517     0.46478603 
Loop time of 0.253193 on 4 procs for 50 steps with 15278 atoms, finish time Wed Jul 29 23:23:53 2020


Pair  time (%) = 0.0963987 (38.0731)
Neigh time (%) = 0 (0)
Comm  time (%) = 0.00324893 (1.28318)
Outpt time (%) = 0.0264006 (10.427)
Other time (%) = 0.127145 (50.2166)

Nlocal:    3819.5 ave 3849 max 3776 min
Histogram: 1 0 0 0 1 0 0 0 0 2
Nghost:    771 ave 783 max 766 min
Histogram: 2 1 0 0 0 0 0 0 0 1
Neighs:    27110.5 ave 27401 max 26834 min
Histogram: 1 0 0 0 2 0 0 0 0 1

Total # of neighbors = 108442
Ave neighs/atom = 7.09792
Neighbor list builds = 0
Dangerous builds = 0
Executing command: 'write_restart ../DEM/post/restart/liggghts.restartCFDEM'
System init for write_restart ...
LIGGGHTS finished

 timeStepFraction() = 1

Solver level total Eulerian momentum exchange:
  TotalForceImp:  (-0.000740169 -6.66004e-05 -0.133849)
  Warning, these values are based on latest Ksl and Us but prev. iteration U!

DILUPBiCGStab:  Solving for Ux, Initial residual = 0.00142322, Final residual = 1.04756e-05, No Iterations 1
DILUPBiCGStab:  Solving for Uy, Initial residual = 0.0240367, Final residual = 0.00019587, No Iterations 1
DILUPBiCGStab:  Solving for Uz, Initial residual = 0.000791451, Final residual = 4.91637e-06, No Iterations 1
DICPCG:  Solving for p, Initial residual = 0.178072, Final residual = 0.0157264, No Iterations 4
DICPCG:  Solving for p, Initial residual = 0.0303388, Final residual = 0.00282866, No Iterations 10
time step continuity errors : sum local = 2.85155e-06, global = 1.95875e-09, cumulative = -9.46532e-07
DICPCG:  Solving for p, Initial residual = 0.0181907, Final residual = 0.00177962, No Iterations 6
DICPCG:  Solving for p, Initial residual = 0.00336863, Final residual = 0.000313953, No Iterations 17
time step continuity errors : sum local = 3.15396e-07, global = -5.33937e-10, cumulative = -9.47066e-07
DICPCG:  Solving for p, Initial residual = 0.00283605, Final residual = 0.000278122, No Iterations 7
DICPCG:  Solving for p, Initial residual = 0.000505338, Final residual = 4.96962e-05, No Iterations 24
time step continuity errors : sum local = 4.9923e-08, global = -7.54814e-10, cumulative = -9.47821e-07
DICPCG:  Solving for p, Initial residual = 0.000724843, Final residual = 5.44428e-05, No Iterations 3
DICPCG:  Solving for p, Initial residual = 9.99658e-05, Final residual = 9.3225e-07, No Iterations 303
time step continuity errors : sum local = 9.36407e-10, global = 1.72837e-12, cumulative = -9.47819e-07
ExecutionTime = 105.3 s  ClockTime = 106 s

Time = 0.0009

Courant Number mean: 0.0415101 max: 10.4071

 Coupling...
Starting up LIGGGHTS
Executing command: 'run 50    '
Setting up run at Wed Jul 29 23:23:57 2020

Memory usage per processor = 25.7245 Mbytes
    Step    Atoms         KinEng            rke         Volume       centerOf       dragtota       dragtota       dragtota 
  350851    15278   2.815919e-06  2.0476751e-07         0.0051   0.0031009063   0.0020753998 -0.00091915541     0.43977154 
CFD Coupling established at step 350900
  350900    15278  2.8511422e-06  2.2964543e-07         0.0051   0.0031016147   0.0020753998 -0.00091915541     0.43977154 
  350901    15278  2.8563945e-06  2.3036517e-07         0.0051   0.0031016294   0.0020753998 -0.00091915541     0.43977154 
Loop time of 0.252841 on 4 procs for 50 steps with 15278 atoms, finish time Wed Jul 29 23:23:57 2020


Pair  time (%) = 0.0981667 (38.8255)
Neigh time (%) = 0 (0)
Comm  time (%) = 0.00340664 (1.34735)
Outpt time (%) = 0.0943552 (37.318)
Other time (%) = 0.0569125 (22.5092)

Nlocal:    3819.5 ave 3849 max 3776 min
Histogram: 1 0 0 0 1 0 0 0 0 2
Nghost:    771 ave 783 max 766 min
Histogram: 2 1 0 0 0 0 0 0 0 1
Neighs:    27110.2 ave 27399 max 26835 min
Histogram: 1 0 0 0 2 0 0 0 0 1

Total # of neighbors = 108441
Ave neighs/atom = 7.09785
Neighbor list builds = 0
Dangerous builds = 0
Executing command: 'write_restart ../DEM/post/restart/liggghts.restartCFDEM'
System init for write_restart ...
LIGGGHTS finished

 timeStepFraction() = 1

Solver level total Eulerian momentum exchange:
  TotalForceImp:  (0.00448736 -0.0120667 -0.211105)
  Warning, these values are based on latest Ksl and Us but prev. iteration U!

DILUPBiCGStab:  Solving for Ux, Initial residual = 0.00254791, Final residual = 1.07544e-05, No Iterations 1
DILUPBiCGStab:  Solving for Uy, Initial residual = 0.038989, Final residual = 0.000231037, No Iterations 1
DILUPBiCGStab:  Solving for Uz, Initial residual = 0.00248241, Final residual = 5.7263e-06, No Iterations 1
DICPCG:  Solving for p, Initial residual = 0.179639, Final residual = 0.0144069, No Iterations 4
DICPCG:  Solving for p, Initial residual = 0.0297294, Final residual = 0.0029292, No Iterations 12
time step continuity errors : sum local = 2.94999e-06, global = 4.16404e-09, cumulative = -9.43655e-07
DICPCG:  Solving for p, Initial residual = 0.0176988, Final residual = 0.00152202, No Iterations 6
DICPCG:  Solving for p, Initial residual = 0.00307179, Final residual = 0.00030133, No Iterations 17
time step continuity errors : sum local = 3.02376e-07, global = 3.16964e-09, cumulative = -9.40485e-07
DICPCG:  Solving for p, Initial residual = 0.00281781, Final residual = 0.000273994, No Iterations 4
DICPCG:  Solving for p, Initial residual = 0.000469702, Final residual = 4.54529e-05, No Iterations 27
time step continuity errors : sum local = 4.56045e-08, global = 3.0958e-09, cumulative = -9.37389e-07
DICPCG:  Solving for p, Initial residual = 0.000777212, Final residual = 7.1223e-05, No Iterations 3
DICPCG:  Solving for p, Initial residual = 0.000122116, Final residual = 9.58385e-07, No Iterations 305
time step continuity errors : sum local = 9.61371e-10, global = -2.04823e-12, cumulative = -9.37392e-07
ExecutionTime = 110.51 s  ClockTime = 111 s

Time = 0.00095

Courant Number mean: 0.0415102 max: 2.79071

 Coupling...
Starting up LIGGGHTS
Executing command: 'run 50    '
Setting up run at Wed Jul 29 23:24:02 2020

Memory usage per processor = 25.7245 Mbytes
    Step    Atoms         KinEng            rke         Volume       centerOf       dragtota       dragtota       dragtota 
  350901    15278  2.8563945e-06  2.3036517e-07         0.0051   0.0031016294  -0.0091974719    0.015815029     0.51883272 
CFD Coupling established at step 350950
  350951    15278  4.8472231e-06  2.2850865e-07         0.0051   0.0031023869  -0.0091974719    0.015815029     0.51883272 
Loop time of 0.255782 on 4 procs for 50 steps with 15278 atoms, finish time Wed Jul 29 23:24:02 2020


Pair  time (%) = 0.0971332 (37.975)
Neigh time (%) = 0 (0)
Comm  time (%) = 0.00317097 (1.23972)
Outpt time (%) = 0.0265744 (10.3895)
Other time (%) = 0.128903 (50.3957)

Nlocal:    3819.5 ave 3850 max 3776 min
Histogram: 1 0 0 0 1 0 0 0 1 1
Nghost:    771 ave 783 max 766 min
Histogram: 2 1 0 0 0 0 0 0 0 1
Neighs:    27111.2 ave 27406 max 26837 min
Histogram: 1 0 0 0 2 0 0 0 0 1

Total # of neighbors = 108445
Ave neighs/atom = 7.09811
Neighbor list builds = 0
Dangerous builds = 0
Executing command: 'write_restart ../DEM/post/restart/liggghts.restartCFDEM'
System init for write_restart ...
LIGGGHTS finished

 timeStepFraction() = 1

Solver level total Eulerian momentum exchange:
  TotalForceImp:  (-0.00345662 0.00256908 -0.166152)
  Warning, these values are based on latest Ksl and Us but prev. iteration U!

DILUPBiCGStab:  Solving for Ux, Initial residual = 0.00188798, Final residual = 1.00343e-05, No Iterations 1
DILUPBiCGStab:  Solving for Uy, Initial residual = 0.0329394, Final residual = 0.000177386, No Iterations 1
DILUPBiCGStab:  Solving for Uz, Initial residual = 0.00169509, Final residual = 4.71682e-06, No Iterations 1
DICPCG:  Solving for p, Initial residual = 0.202077, Final residual = 0.0188931, No Iterations 3
DICPCG:  Solving for p, Initial residual = 0.0340924, Final residual = 0.00317819, No Iterations 15
time step continuity errors : sum local = 3.3387e-06, global = -5.8025e-09, cumulative = -9.43194e-07
DICPCG:  Solving for p, Initial residual = 0.0226249, Final residual = 0.00212676, No Iterations 4
DICPCG:  Solving for p, Initial residual = 0.00366445, Final residual = 0.000338386, No Iterations 24
time step continuity errors : sum local = 3.54383e-07, global = -4.85727e-09, cumulative = -9.48051e-07
DICPCG:  Solving for p, Initial residual = 0.00362938, Final residual = 0.000341238, No Iterations 4
DICPCG:  Solving for p, Initial residual = 0.000572931, Final residual = 5.7012e-05, No Iterations 52
time step continuity errors : sum local = 5.9656e-08, global = -4.98812e-09, cumulative = -9.53039e-07
DICPCG:  Solving for p, Initial residual = 0.000892287, Final residual = 6.94979e-05, No Iterations 3
DICPCG:  Solving for p, Initial residual = 0.000118197, Final residual = 9.22032e-07, No Iterations 310
time step continuity errors : sum local = 9.64532e-10, global = -3.67465e-12, cumulative = -9.53043e-07
ExecutionTime = 114.94 s  ClockTime = 115 s

Time = 0.001

Courant Number mean: 0.0415363 max: 11.5153

 Coupling...
Starting up LIGGGHTS
Executing command: 'run 50    '
Setting up run at Wed Jul 29 23:24:06 2020

Memory usage per processor = 25.7245 Mbytes
    Step    Atoms         KinEng            rke         Volume       centerOf       dragtota       dragtota       dragtota 
  350951    15278  4.8472231e-06  2.2850865e-07         0.0051   0.0031023869 -0.00012751168  -0.0070568972     0.47291156 
CFD Coupling established at step 351000
  351000    15278  4.7325917e-06  7.0007295e-07         0.0051   0.0031031646 -0.00012751168  -0.0070568972     0.47291156 
  351001    15278  4.7620446e-06  7.0550948e-07         0.0051   0.0031031808 -0.00012751168  -0.0070568972     0.47291156 
Loop time of 0.256756 on 4 procs for 50 steps with 15278 atoms, finish time Wed Jul 29 23:24:07 2020


Pair  time (%) = 0.0957069 (37.2754)
Neigh time (%) = 0 (0)
Comm  time (%) = 0.00329405 (1.28295)
Outpt time (%) = 0.100632 (39.1937)
Other time (%) = 0.0571231 (22.248)

Nlocal:    3819.5 ave 3850 max 3776 min
Histogram: 1 0 0 0 1 0 0 0 1 1
Nghost:    771.25 ave 783 max 766 min
Histogram: 2 0 1 0 0 0 0 0 0 1
Neighs:    27112.2 ave 27410 max 26837 min
Histogram: 1 0 0 0 2 0 0 0 0 1

Total # of neighbors = 108449
Ave neighs/atom = 7.09838
Neighbor list builds = 0
Dangerous builds = 0
Executing command: 'write_restart ../DEM/post/restart/liggghts.restartCFDEM'
System init for write_restart ...
LIGGGHTS finished

 timeStepFraction() = 1

Solver level total Eulerian momentum exchange:
  TotalForceImp:  (-0.000673893 -0.00137236 -0.129271)
  Warning, these values are based on latest Ksl and Us but prev. iteration U!

DILUPBiCGStab:  Solving for Ux, Initial residual = 0.00179925, Final residual = 7.32983e-05, No Iterations 1
DILUPBiCGStab:  Solving for Uy, Initial residual = 0.0346988, Final residual = 0.00196479, No Iterations 1
DILUPBiCGStab:  Solving for Uz, Initial residual = 0.00134327, Final residual = 4.12543e-05, No Iterations 1
DICPCG:  Solving for p, Initial residual = 0.198678, Final residual = 0.0195287, No Iterations 4
DICPCG:  Solving for p, Initial residual = 0.036616, Final residual = 0.00365811, No Iterations 16
time step continuity errors : sum local = 3.73522e-06, global = 7.7038e-09, cumulative = -9.45339e-07
DICPCG:  Solving for p, Initial residual = 0.0255347, Final residual = 0.00220039, No Iterations 5
DICPCG:  Solving for p, Initial residual = 0.00415967, Final residual = 0.000412228, No Iterations 25
time step continuity errors : sum local = 4.17591e-07, global = 7.96684e-09, cumulative = -9.37372e-07
DICPCG:  Solving for p, Initial residual = 0.0047757, Final residual = 0.000404431, No Iterations 6
DICPCG:  Solving for p, Initial residual = 0.000787112, Final residual = 7.73571e-05, No Iterations 47
time step continuity errors : sum local = 7.83112e-08, global = 7.84546e-09, cumulative = -9.29527e-07
DICPCG:  Solving for p, Initial residual = 0.00144932, Final residual = 0.000126424, No Iterations 6
DICPCG:  Solving for p, Initial residual = 0.000239956, Final residual = 9.68575e-07, No Iterations 329
time step continuity errors : sum local = 9.80025e-10, global = -1.44747e-12, cumulative = -9.29528e-07
ExecutionTime = 120.54 s  ClockTime = 121 s

Time = 0.00105

Courant Number mean: 0.0415172 max: 6.04717

 Coupling...
Starting up LIGGGHTS
Executing command: 'run 50    '
Setting up run at Wed Jul 29 23:24:12 2020

Memory usage per processor = 25.7245 Mbytes
    Step    Atoms         KinEng            rke         Volume       centerOf       dragtota       dragtota       dragtota 
  351001    15278  4.7620446e-06  7.0550948e-07         0.0051   0.0031031808  0.00065448242   0.0027064065      0.4293181 
CFD Coupling established at step 351050
  351051    15278  4.6813391e-06  5.8498679e-07         0.0051   0.0031040049  0.00065448242   0.0027064065      0.4293181 
Loop time of 0.250443 on 4 procs for 50 steps with 15278 atoms, finish time Wed Jul 29 23:24:12 2020


Pair  time (%) = 0.0934755 (37.324)
Neigh time (%) = 0 (0)
Comm  time (%) = 0.00323939 (1.29347)
Outpt time (%) = 0.0260454 (10.3997)
Other time (%) = 0.127683 (50.9828)

Nlocal:    3819.5 ave 3850 max 3776 min
Histogram: 1 0 0 0 1 0 0 0 1 1
Nghost:    771.25 ave 783 max 766 min
Histogram: 2 0 1 0 0 0 0 0 0 1
Neighs:    27110 ave 27410 max 26834 min
Histogram: 1 0 0 0 2 0 0 0 0 1

Total # of neighbors = 108440
Ave neighs/atom = 7.09779
Neighbor list builds = 0
Dangerous builds = 0
Executing command: 'write_restart ../DEM/post/restart/liggghts.restartCFDEM'
System init for write_restart ...
LIGGGHTS finished

 timeStepFraction() = 1

Solver level total Eulerian momentum exchange:
  TotalForceImp:  (-0.00151079 0.00115376 -0.13349)
  Warning, these values are based on latest Ksl and Us but prev. iteration U!

DILUPBiCGStab:  Solving for Ux, Initial residual = 0.0016, Final residual = 1.30783e-05, No Iterations 1
DILUPBiCGStab:  Solving for Uy, Initial residual = 0.0273799, Final residual = 0.000286735, No Iterations 1
DILUPBiCGStab:  Solving for Uz, Initial residual = 0.000975715, Final residual = 7.19229e-06, No Iterations 1
DICPCG:  Solving for p, Initial residual = 0.202924, Final residual = 0.015447, No Iterations 5
DICPCG:  Solving for p, Initial residual = 0.034777, Final residual = 0.00314666, No Iterations 17
time step continuity errors : sum local = 3.21083e-06, global = -5.70032e-09, cumulative = -9.35229e-07
DICPCG:  Solving for p, Initial residual = 0.0227528, Final residual = 0.00179792, No Iterations 8
DICPCG:  Solving for p, Initial residual = 0.00376097, Final residual = 0.000362068, No Iterations 26
time step continuity errors : sum local = 3.6709e-07, global = -4.30517e-09, cumulative = -9.39534e-07
DICPCG:  Solving for p, Initial residual = 0.00388596, Final residual = 0.000334033, No Iterations 6
DICPCG:  Solving for p, Initial residual = 0.000579607, Final residual = 5.64497e-05, No Iterations 40
time step continuity errors : sum local = 5.71778e-08, global = -4.3143e-09, cumulative = -9.43848e-07
DICPCG:  Solving for p, Initial residual = 0.00102107, Final residual = 7.95721e-05, No Iterations 7
DICPCG:  Solving for p, Initial residual = 0.00015043, Final residual = 9.68471e-07, No Iterations 323
time step continuity errors : sum local = 9.80575e-10, global = 6.37425e-12, cumulative = -9.43842e-07
ExecutionTime = 124.99 s  ClockTime = 125 s

Time = 0.0011

Courant Number mean: 0.0415294 max: 5.77806

 Coupling...
Starting up LIGGGHTS
Executing command: 'run 50    '
Setting up run at Wed Jul 29 23:24:16 2020

Memory usage per processor = 25.7245 Mbytes
    Step    Atoms         KinEng            rke         Volume       centerOf       dragtota       dragtota       dragtota 
  351051    15278  4.6813391e-06  5.8498679e-07         0.0051   0.0031040049   0.0058999709   -0.003894809      0.4368463 
CFD Coupling established at step 351100
  351100    15278  4.7706568e-06  5.8703536e-07         0.0051   0.0031048395   0.0058999709   -0.003894809      0.4368463 
  351101    15278  4.7699181e-06  5.8932993e-07         0.0051   0.0031048568   0.0058999709   -0.003894809      0.4368463 
Loop time of 0.255498 on 4 procs for 50 steps with 15278 atoms, finish time Wed Jul 29 23:24:17 2020


Pair  time (%) = 0.0951805 (37.253)
Neigh time (%) = 0 (0)
Comm  time (%) = 0.00336587 (1.31738)
Outpt time (%) = 0.0993055 (38.8675)
Other time (%) = 0.0576458 (22.5622)

Nlocal:    3819.5 ave 3850 max 3776 min
Histogram: 1 0 0 0 1 0 0 0 1 1
Nghost:    771 ave 783 max 766 min
Histogram: 2 1 0 0 0 0 0 0 0 1
Neighs:    27109.5 ave 27410 max 26835 min
Histogram: 1 0 0 0 2 0 0 0 0 1

Total # of neighbors = 108438
Ave neighs/atom = 7.09766
Neighbor list builds = 0
Dangerous builds = 0
Executing command: 'write_restart ../DEM/post/restart/liggghts.restartCFDEM'
System init for write_restart ...
LIGGGHTS finished

 timeStepFraction() = 1

Solver level total Eulerian momentum exchange:
  TotalForceImp:  (-0.00113531 -5.91174e-05 -0.133895)
  Warning, these values are based on latest Ksl and Us but prev. iteration U!

DILUPBiCGStab:  Solving for Ux, Initial residual = 0.00162269, Final residual = 2.06125e-05, No Iterations 1
DILUPBiCGStab:  Solving for Uy, Initial residual = 0.0263471, Final residual = 0.000198278, No Iterations 1
DILUPBiCGStab:  Solving for Uz, Initial residual = 0.00100673, Final residual = 5.33087e-06, No Iterations 1
DICPCG:  Solving for p, Initial residual = 0.20457, Final residual = 0.019661, No Iterations 7
[...]
  TotalForceImp:  (-1796.8 -1170.82 1569.4)
  Warning, these values are based on latest Ksl and Us but prev. iteration U!

DILUPBiCGStab:  Solving for Ux, Initial residual = 0.985401, Final residual = 0.0835156, No Iterations 1
DILUPBiCGStab:  Solving for Uy, Initial residual = 0.991597, Final residual = 0.0627996, No Iterations 1
DILUPBiCGStab:  Solving for Uz, Initial residual = 0.995552, Final residual = 0.0904838, No Iterations 1
DICPCG:  Solving for p, Initial residual = 0.966102, Final residual = 0.068571, No Iterations 3
DICPCG:  Solving for p, Initial residual = 0.0479659, Final residual = 0.00451084, No Iterations 11
time step continuity errors : sum local = 0.00177666, global = 1.54883e-07, cumulative = -7.64075e-07
DICPCG:  Solving for p, Initial residual = 0.14984, Final residual = 0.01467, No Iterations 3
DICPCG:  Solving for p, Initial residual = 0.0386247, Final residual = 0.00344592, No Iterations 10
time step continuity errors : sum local = 0.00111186, global = 1.53412e-07, cumulative = -6.10663e-07
DICPCG:  Solving for p, Initial residual = 0.215142, Final residual = 0.0152872, No Iterations 2
DICPCG:  Solving for p, Initial residual = 0.0256991, Final residual = 0.00247084, No Iterations 11
time step continuity errors : sum local = 0.000799093, global = 1.52744e-07, cumulative = -4.57919e-07
DICPCG:  Solving for p, Initial residual = 0.355782, Final residual = 0.0210941, No Iterations 2
DICPCG:  Solving for p, Initial residual = 0.0260775, Final residual = 9.91283e-07, No Iterations 371
time step continuity errors : sum local = 4.81423e-07, global = -1.34116e-09, cumulative = -4.5926e-07
ExecutionTime = 259.69 s  ClockTime = 261 s

Time = 0.00245

Courant Number mean: 0.256835 max: 110432

 Coupling...
Starting up LIGGGHTS
Executing command: 'run 50    '
Setting up run at Wed Jul 29 23:26:32 2020

Memory usage per processor = 25.7248 Mbytes
    Step    Atoms         KinEng            rke         Volume       centerOf       dragtota       dragtota       dragtota 
  352401    15275   0.0041631023  1.2662026e-05         0.0051   0.0031379499      7816.9529      5847.8761     -5990.8235 
CFD Coupling established at step 352450
  352451    15271     0.16531355   0.0010919313         0.0051   0.0031381068     -8.6083584      6.6167843     -17.149531 
Loop time of 0.926366 on 4 procs for 50 steps with 15271 atoms, finish time Wed Jul 29 23:26:33 2020


Pair  time (%) = 0.0910732 (9.83124)
Neigh time (%) = 0.35353 (38.1632)
Comm  time (%) = 0.0501654 (5.41529)
Outpt time (%) = 0.026205 (2.8288)
Other time (%) = 0.405392 (43.7615)

Nlocal:    3817.75 ave 3852 max 3775 min
Histogram: 1 0 0 1 0 0 0 0 1 1
Nghost:    770 ave 784 max 762 min
Histogram: 1 1 0 1 0 0 0 0 0 1
Neighs:    27024.5 ave 27361 max 26795 min
Histogram: 1 0 1 1 0 0 0 0 0 1

Total # of neighbors = 108098
Ave neighs/atom = 7.07865
Neighbor list builds = 45
Dangerous builds = 40
Executing command: 'write_restart ../DEM/post/restart/liggghts.restartCFDEM'
System init for write_restart ...
LIGGGHTS finished

 timeStepFraction() = 1

Solver level total Eulerian momentum exchange:
  TotalForceImp:  (-26219.1 -30404.9 -30641.3)
  Warning, these values are based on latest Ksl and Us but prev. iteration U!

DILUPBiCGStab:  Solving for Ux, Initial residual = 0.948727, Final residual = 0.0640381, No Iterations 1
DILUPBiCGStab:  Solving for Uy, Initial residual = 0.952871, Final residual = 0.0714944, No Iterations 1
DILUPBiCGStab:  Solving for Uz, Initial residual = 0.984795, Final residual = 0.0454538, No Iterations 2
DICPCG:  Solving for p, Initial residual = 0.819879, Final residual = 0.0693588, No Iterations 4
DICPCG:  Solving for p, Initial residual = 0.0156671, Final residual = 0.00149463, No Iterations 15
time step continuity errors : sum local = 0.0190755, global = 1.49087e-06, cumulative = 1.03161e-06
DICPCG:  Solving for p, Initial residual = 0.0665165, Final residual = 0.00549706, No Iterations 3
DICPCG:  Solving for p, Initial residual = 0.0132924, Final residual = 0.00119673, No Iterations 15
time step continuity errors : sum local = 0.0129088, global = 1.49112e-06, cumulative = 2.52273e-06
DICPCG:  Solving for p, Initial residual = 0.394985, Final residual = 0.0242824, No Iterations 2
DICPCG:  Solving for p, Initial residual = 0.0296852, Final residual = 0.00263064, No Iterations 18
time step continuity errors : sum local = 0.0311993, global = 1.49137e-06, cumulative = 4.01409e-06
DICPCG:  Solving for p, Initial residual = 0.950812, Final residual = 0.0426032, No Iterations 1
DICPCG:  Solving for p, Initial residual = 0.0232994, Final residual = 9.60134e-07, No Iterations 262
time step continuity errors : sum local = 0.000232126, global = -1.29842e-05, cumulative = -8.97011e-06
ExecutionTime = 264.52 s  ClockTime = 265 s

Time = 0.0025

Courant Number mean: 18.9974 max: 2.32211e+07

 Coupling...
Starting up LIGGGHTS
Executing command: 'run 50    '
Setting up run at Wed Jul 29 23:26:36 2020

Memory usage per processor = 25.7248 Mbytes
    Step    Atoms         KinEng            rke         Volume       centerOf       dragtota       dragtota       dragtota 
  352451    15271     0.16531355   0.0010919313         0.0051   0.0031389287      190684.81      82142.081      81488.371 
CFD Coupling established at step 352500
  352500    15183       123.6646    0.014538223         0.0051   0.0031957904      197.07573      194.64205      1033.8102 
  352501    15181      107.92777    0.015334066         0.0051    0.003191455      155.51276      155.91967      924.91331 
Loop time of 1.00016 on 4 procs for 50 steps with 15181 atoms, finish time Wed Jul 29 23:26:37 2020


Pair  time (%) = 0.091697 (9.16827)
Neigh time (%) = 0.389599 (38.9538)
Comm  time (%) = 0.0596463 (5.9637)
Outpt time (%) = 0.0971241 (9.71089)
Other time (%) = 0.36209 (36.2034)

Nlocal:    3795.25 ave 3862 max 3687 min
Histogram: 1 0 0 0 0 1 0 0 0 2
Nghost:    771.25 ave 785 max 762 min
Histogram: 2 0 0 0 0 1 0 0 0 1
Neighs:    26886.5 ave 27419 max 26409 min
Histogram: 1 0 0 1 0 1 0 0 0 1

Total # of neighbors = 107546
Ave neighs/atom = 7.08425
Neighbor list builds = 50
Dangerous builds = 50
Executing command: 'write_restart ../DEM/post/restart/liggghts.restartCFDEM'
System init for write_restart ...
LIGGGHTS finished

 timeStepFraction() = 1

Solver level total Eulerian momentum exchange:
  TotalForceImp:  (-1.86827e+07 -2.42789e+07 -4.89348e+06)
  Warning, these values are based on latest Ksl and Us but prev. iteration U!

DILUPBiCGStab:  Solving for Ux, Initial residual = 0.999727, Final residual = 0.0850255, No Iterations 1
DILUPBiCGStab:  Solving for Uy, Initial residual = 0.999896, Final residual = 0.083974, No Iterations 1
DILUPBiCGStab:  Solving for Uz, Initial residual = 0.999344, Final residual = 0.0590778, No Iterations 2
DICPCG:  Solving for p, Initial residual = 0.955304, Final residual = 0.0826361, No Iterations 425
DICPCG:  Solving for p, Initial residual = 0.000115915, Final residual = 1.09362e-05, No Iterations 169
time step continuity errors : sum local = 41.8505, global = -4.1792e-06, cumulative = -1.31493e-05
DICPCG:  Solving for p, Initial residual = 0.000414487, Final residual = 4.08197e-05, No Iterations 306
DICPCG:  Solving for p, Initial residual = 0.000278653, Final residual = 2.14376e-05, No Iterations 187
time step continuity errors : sum local = 48.0963, global = -6.71675e-06, cumulative = -1.98661e-05
DICPCG:  Solving for p, Initial residual = 0.00258669, Final residual = 0.00019633, No Iterations 653
DICPCG:  Solving for p, Initial residual = 0.00396735, Final residual = 0.000250024, No Iterations 186
time step continuity errors : sum local = 4241.48, global = -1.82261e-05, cumulative = -3.80921e-05
DICPCG:  Solving for p, Initial residual = 0.0253424, Final residual = 0.00252296, No Iterations 307
DICPCG:  Solving for p, Initial residual = 0.00526193, Final residual = 5.61988e-06, No Iterations 1001
time step continuity errors : sum local = 848.498, global = 3.78481e-05, cumulative = -2.44038e-07
ExecutionTime = 286.27 s  ClockTime = 287 s

Time = 0.00255

Courant Number mean: 3.50758e+06 max: 1.02651e+13

 Coupling...
Starting up LIGGGHTS
Executing command: 'run 50    '
Setting up run at Wed Jul 29 23:26:58 2020

Memory usage per processor = 25.726 Mbytes
    Step    Atoms         KinEng            rke         Volume       centerOf       dragtota       dragtota       dragtota 
  352501    15181      107.92777    0.015334066         0.0051   0.0032103754  7.6956656e+09  3.0263171e+09 -1.0437326e+11 
CFD Coupling established at step 352550
  352551    13046      6699.1688    0.087062523         0.0051   0.0052049697      4339.0659      9019.0375      37388.785 
Loop time of 1.01375 on 4 procs for 50 steps with 13046 atoms, finish time Wed Jul 29 23:26:59 2020


Pair  time (%) = 0.0863879 (8.52159)
Neigh time (%) = 0.368497 (36.3498)
Comm  time (%) = 0.109207 (10.7725)
Outpt time (%) = 0.0236375 (2.33169)
Other time (%) = 0.426024 (42.0244)

Nlocal:    3261.5 ave 3897 max 1685 min
Histogram: 1 0 0 0 0 0 0 0 0 3
Nghost:    599.25 ave 787 max 446 min
Histogram: 1 1 0 0 0 0 1 0 0 1
Neighs:    21900.2 ave 27353 max 7624 min
Histogram: 1 0 0 0 0 0 0 0 0 3

Total # of neighbors = 87601
Ave neighs/atom = 6.71478
Neighbor list builds = 50
Dangerous builds = 50
Executing command: 'write_restart ../DEM/post/restart/liggghts.restartCFDEM'
System init for write_restart ...
LIGGGHTS finished

 timeStepFraction() = 1

Solver level total Eulerian momentum exchange:
  TotalForceImp:  (-1.71581e+12 -1.38859e+12 4.92785e+12)
  Warning, these values are based on latest Ksl and Us but prev. iteration U!

DILUPBiCGStab:  Solving for Ux, Initial residual = 1, Final residual = 42.4566, No Iterations 1001
DILUPBiCGStab:  Solving for Uy, Initial residual = 1, Final residual = 15.9939, No Iterations 1001
DILUPBiCGStab:  Solving for Uz, Initial residual = 1, Final residual = 22.4256, No Iterations 1001
DICPCG:  Solving for p, Initial residual = 1, Final residual = 7.76372, No Iterations 1001
DICPCG:  Solving for p, Initial residual = 0.795929, Final residual = 1.0574, No Iterations 1001
time step continuity errors : sum local = 1.91118e+18, global = 303318, cumulative = 303318
DICPCG:  Solving for p, Initial residual = 0.999355, Final residual = 2.34328, No Iterations 1001
DICPCG:  Solving for p, Initial residual = 0.501801, Final residual = 0.443988, No Iterations 1001
time step continuity errors : sum local = 7.85894e+21, global = 5.94689e+07, cumulative = 5.97722e+07
DICPCG:  Solving for p, Initial residual = 0.99982, Final residual = 16.5519, No Iterations 1001
DICPCG:  Solving for p, Initial residual = 0.495087, Final residual = 1.30948, No Iterations 1001
time step continuity errors : sum local = 2.56665e+27, global = 4.15566e+13, cumulative = 4.15567e+13
DICPCG:  Solving for p, Initial residual = 0.999718, Final residual = 41.0271, No Iterations 1001
DICPCG:  Solving for p, Initial residual = 0.777237, Final residual = 1.08391, No Iterations 1001
time step continuity errors : sum local = 5.2184e+32, global = -4.54683e+19, cumulative = -4.54683e+19
ExecutionTime = 375.87 s  ClockTime = 377 s

Time = 0.0026

Courant Number mean: 9.75143e+32 max: 1.38419e+38

 Coupling...
Starting up LIGGGHTS
Executing command: 'run 50    '
Setting up run at Wed Jul 29 23:28:28 2020

Memory usage per processor = 25.8089 Mbytes
    Step    Atoms         KinEng            rke         Volume       centerOf       dragtota       dragtota       dragtota 
  352551    13046      6699.1688    0.087062523         0.0051   0.0060567718 -3.2795284e+18 -4.8798593e+18  3.0498297e+17 
CFD Coupling established at step 352600
  352600      264      53.131087    0.014056459         0.0051  0.00024637806              0              0              0 
  352601      260      52.055755    0.013742969         0.0051  0.00024211761              0              0              0 
Loop time of 0.277714 on 4 procs for 50 steps with 260 atoms, finish time Wed Jul 29 23:28:28 2020


Pair  time (%) = 0.00154418 (0.556031)
Neigh time (%) = 0.0319778 (11.5146)
Comm  time (%) = 0.045242 (16.2908)
Outpt time (%) = 0.00289416 (1.04214)
Other time (%) = 0.196056 (70.5964)

Nlocal:    65 ave 135 max 12 min
Histogram: 1 0 1 0 1 0 0 0 0 1
Nghost:    12.75 ave 21 max 2 min
Histogram: 1 0 0 0 1 0 0 0 1 1
Neighs:    27.25 ave 66 max 2 min
Histogram: 2 0 0 0 1 0 0 0 0 1

Total # of neighbors = 109
Ave neighs/atom = 0.419231
Neighbor list builds = 50
Dangerous builds = 50
Executing command: 'write_restart ../DEM/post/restart/liggghts.restartCFDEM'
System init for write_restart ...
LIGGGHTS finished

 timeStepFraction() = 1

Solver level total Eulerian momentum exchange:
  TotalForceImp:  (5.27236e+30 -2.33499e+31 -2.80044e+30)
  Warning, these values are based on latest Ksl and Us but prev. iteration U!

[2] #0  [0] #0  Foam::error::printStack(Foam::Ostream&)Foam::error::printStack(Foam::Ostream&) at ??:?
 at ??:?
[0] #1  Foam::sigFpe::sigHandler(int)[2] #1  Foam::sigFpe::sigHandler(int) at ??:?
[0] #2  ? at ??:?
[2] #2  ? in "/lib/x86_64-linux-gnu/libpthread.so.0"
[0] #3  Foam::DILUPreconditioner::calcReciprocalD(Foam::Field<double>&, Foam::lduMatrix const&) in "/lib/x86_64-linux-gnu/libpthread.so.0"
[2] #3  Foam::DILUPreconditioner::calcReciprocalD(Foam::Field<double>&, Foam::lduMatrix const&) at ??:?
[0] #4  Foam::DILUPreconditioner::DILUPreconditioner(Foam::lduMatrix::solver const&, Foam::dictionary const&) at ??:?
[2] #4  Foam::DILUPreconditioner::DILUPreconditioner(Foam::lduMatrix::solver const&, Foam::dictionary const&) at ??:?
[0] #5  Foam::lduMatrix::preconditioner::addasymMatrixConstructorToTable<Foam::DILUPreconditioner>::New(Foam::lduMatrix::solver const&, Foam::dictionary const&) at ??:?
 at ??:?
[0] #6  Foam::lduMatrix::preconditioner::New(Foam::lduMatrix::solver const&, Foam::dictionary const&)[2] #5  Foam::lduMatrix::preconditioner::addasymMatrixConstructorToTable<Foam::DILUPreconditioner>::New(Foam::lduMatrix::solver const&, Foam::dictionary const&) at ??:?
[0] #7  Foam::PBiCGStab::solve(Foam::Field<double>&, Foam::Field<double> const&, unsigned char) const at ??:?
[2] #6  Foam::lduMatrix::preconditioner::New(Foam::lduMatrix::solver const&, Foam::dictionary const&) at ??:?
[0] #8   at ??:?
[2] #7  Foam::PBiCGStab::solve(Foam::Field<double>&, Foam::Field<double> const&, unsigned char) constFoam::fvMatrix<Foam::Vector<double> >::solveSegregated(Foam::dictionary const&) at ??:?
[2] #8   at ??:?
[0] #9  Foam::fvMatrix<Foam::Vector<double> >::solve(Foam::dictionary const&)Foam::fvMatrix<Foam::Vector<double> >::solveSegregated(Foam::dictionary const&) at ??:?
[0] #10   at ??:?
[2] #9  Foam::SolverPerformance<Foam::Vector<double> > Foam::solve<Foam::Vector<double> >(Foam::tmp<Foam::fvMatrix<Foam::Vector<double> > > const&)Foam::fvMatrix<Foam::Vector<double> >::solve(Foam::dictionary const&) at ??:?
[0] #11  ? at ??:?
[2] #10   at ??:?
[0] #12  __libc_start_mainFoam::SolverPerformance<Foam::Vector<double> > Foam::solve<Foam::Vector<double> >(Foam::tmp<Foam::fvMatrix<Foam::Vector<double> > > const&) in "/lib/x86_64-linux-gnu/libc.so.6"
[0] #13   at ??:?
[2] #11  ?? at ??:?
[hwb-virtual-machine:09163] *** Process received signal ***
[hwb-virtual-machine:09163] Signal: Floating point exception (8)
[hwb-virtual-machine:09163] Signal code:  (-6)
[hwb-virtual-machine:09163] Failing at address: 0x3e8000023cb
[hwb-virtual-machine:09163] [ 0] /lib/x86_64-linux-gnu/libpthread.so.0(+0x11390)[0x7f0cf1678390]
[hwb-virtual-machine:09163] [ 1] /lib/x86_64-linux-gnu/libpthread.so.0(raise+0x29)[0x7f0cf1678269]
[hwb-virtual-machine:09163] [ 2] /lib/x86_64-linux-gnu/libpthread.so.0(+0x11390)[0x7f0cf1678390]
[hwb-virtual-machine:09163] [ 3] /opt/openfoam5/platforms/linux64GccDPInt32Opt/lib/libOpenFOAM.so(_ZN4Foam18DILUPreconditioner15calcReciprocalDERNS_5FieldIdEERKNS_9lduMatrixE+0x9b)[0x7f0cf27c1eeb]
[hwb-virtual-machine:09163] [ 4] /opt/openfoam5/platforms/linux64GccDPInt32Opt/lib/libOpenFOAM.so(_ZN4Foam18DILUPreconditionerC1ERKNS_9lduMatrix6solverERKNS_10dictionaryE+0x4f)[0x7f0cf27c203f]
[hwb-virtual-machine:09163] [ 5] /opt/openfoam5/platforms/linux64GccDPInt32Opt/lib/libOpenFOAM.so(_ZN4Foam9lduMatrix14preconditioner31addasymMatrixConstructorToTableINS_18DILUPreconditionerEE3NewERKNS0_6solverERKNS_10dictionaryE+0x2e)[0x7f0cf27c228e]
[hwb-virtual-machine:09163] [ 6] /opt/openfoam5/platforms/linux64GccDPInt32Opt/lib/libOpenFOAM.so(_ZN4Foam9lduMatrix14preconditioner3NewERKNS0_6solverERKNS_10dictionaryE+0x232)[0x7f0cf27b0a32]
[hwb-virtual-machine:09163] [ 7] /opt/openfoam5/platforms/linux64GccDPInt32Opt/lib/libOpenFOAM.so(_ZNK4Foam9PBiCGStab5solveERNS_5FieldIdEERKS2_h+0x78e)[0x7f0cf27b835e]
[hwb-virtual-machine:09163] [ 8] cfdemSolverPiso(_ZN4Foam8fvMatrixINS_6VectorIdEEE15solveSegregatedERKNS_10dictionaryE+0x513)[0x468333]
[hwb-virtual-machine:09163] [ 9] cfdemSolverPiso(_ZN4Foam8fvMatrixINS_6VectorIdEEE5solveERKNS_10dictionaryE+0x1c9)[0x4757e9]
[hwb-virtual-machine:09163] [10] cfdemSolverPiso(_ZN4Foam5solveINS_6VectorIdEEEENS_17SolverPerformanceIT_EERKNS_3tmpINS_8fvMatrixIS4_EEEE+0xfe)[0x475a9e]
[hwb-virtual-machine:09163] [11] cfdemSolverPiso[0x428e16]
[hwb-virtual-machine:09163] [12] /lib/x86_64-linux-gnu/libc.so.6(__libc_start_main+0xf0)[0x7f0cf12bd830]
[hwb-virtual-machine:09163] [13] cfdemSolverPiso[0x42b009]
[hwb-virtual-machine:09163] *** End of error message ***
 at ??:?
[2] #12  __libc_start_main in "/lib/x86_64-linux-gnu/libc.so.6"
[2] #13  ? at ??:?
[hwb-virtual-machine:09165] *** Process received signal ***
[hwb-virtual-machine:09165] Signal: Floating point exception (8)
[hwb-virtual-machine:09165] Signal code:  (-6)
[hwb-virtual-machine:09165] Failing at address: 0x3e8000023cd
[hwb-virtual-machine:09165] [ 0] /lib/x86_64-linux-gnu/libpthread.so.0(+0x11390)[0x7f60dfdcf390]
[hwb-virtual-machine:09165] [ 1] /lib/x86_64-linux-gnu/libpthread.so.0(raise+0x29)[0x7f60dfdcf269]
[hwb-virtual-machine:09165] [ 2] /lib/x86_64-linux-gnu/libpthread.so.0(+0x11390)[0x7f60dfdcf390]
[hwb-virtual-machine:09165] [ 3] /opt/openfoam5/platforms/linux64GccDPInt32Opt/lib/libOpenFOAM.so(_ZN4Foam18DILUPreconditioner15calcReciprocalDERNS_5FieldIdEERKNS_9lduMatrixE+0x146)[0x7f60e0f18f96]
[hwb-virtual-machine:09165] [ 4] /opt/openfoam5/platforms/linux64GccDPInt32Opt/lib/libOpenFOAM.so(_ZN4Foam18DILUPreconditionerC1ERKNS_9lduMatrix6solverERKNS_10dictionaryE+0x4f)[0x7f60e0f1903f]
[hwb-virtual-machine:09165] [ 5] /opt/openfoam5/platforms/linux64GccDPInt32Opt/lib/libOpenFOAM.so(_ZN4Foam9lduMatrix14preconditioner31addasymMatrixConstructorToTableINS_18DILUPreconditionerEE3NewERKNS0_6solverERKNS_10dictionaryE+0x2e)[0x7f60e0f1928e]
[hwb-virtual-machine:09165] [ 6] /opt/openfoam5/platforms/linux64GccDPInt32Opt/lib/libOpenFOAM.so(_ZN4Foam9lduMatrix14preconditioner3NewERKNS0_6solverERKNS_10dictionaryE+0x232)[0x7f60e0f07a32]
[hwb-virtual-machine:09165] [ 7] /opt/openfoam5/platforms/linux64GccDPInt32Opt/lib/libOpenFOAM.so(_ZNK4Foam9PBiCGStab5solveERNS_5FieldIdEERKS2_h+0x78e)[0x7f60e0f0f35e]
[hwb-virtual-machine:09165] [ 8] cfdemSolverPiso(_ZN4Foam8fvMatrixINS_6VectorIdEEE15solveSegregatedERKNS_10dictionaryE+0x513)[0x468333]
[hwb-virtual-machine:09165] [ 9] cfdemSolverPiso(_ZN4Foam8fvMatrixINS_6VectorIdEEE5solveERKNS_10dictionaryE+0x1c9)[0x4757e9]
[hwb-virtual-machine:09165] [10] cfdemSolverPiso(_ZN4Foam5solveINS_6VectorIdEEEENS_17SolverPerformanceIT_EERKNS_3tmpINS_8fvMatrixIS4_EEEE+0xfe)[0x475a9e]
[hwb-virtual-machine:09165] [11] cfdemSolverPiso[0x428e16]
[hwb-virtual-machine:09165] [12] /lib/x86_64-linux-gnu/libc.so.6(__libc_start_main+0xf0)[0x7f60dfa14830]
[hwb-virtual-machine:09165] [13] cfdemSolverPiso[0x42b009]
[hwb-virtual-machine:09165] *** End of error message ***
--------------------------------------------------------------------------
mpirun noticed that process rank 0 with PID 9163 on node hwb-virtual-machine exited on signal 8 (Floating point exception).
--------------------------------------------------------------------------
