
//   run_parallel_cfdemSolverPiso_fluidizedbedTestMPI_CFDDEM   //

/home/hwb/CFDEM/bubbling_fluidized_bed/fluidizedbedTest/CFD

/*---------------------------------------------------------------------------*\
| =========                 |                                                 |
| \\      /  F ield         | OpenFOAM: The Open Source CFD Toolbox           |
|  \\    /   O peration     | Version:  5.x                                   |
|   \\  /    A nd           | Web:      www.OpenFOAM.org                      |
|    \\/     M anipulation  |                                                 |
\*---------------------------------------------------------------------------*/
Build  : 5.x-197d9d3bf20a
Exec   : cfdemSolverPiso -parallel
Date   : Jul 27 2020
Time   : 01:04:18
Host   : "hwb-virtual-machine"
PID    : 93845
I/O    : uncollated
Case   : /home/hwb/CFDEM/bubbling_fluidized_bed/fluidizedbedTest/CFD
nProcs : 4
Slaves : 
3
(
"hwb-virtual-machine.93846"
"hwb-virtual-machine.93847"
"hwb-virtual-machine.93848"
)

Pstream initialized with:
    floatTransfer      : 0
    nProcsSimpleSum    : 0
    commsType          : nonBlocking
    polling iterations : 0
sigFpe : Enabling floating point exception trapping (FOAM_SIGFPE).
fileModificationChecking : Monitoring run-time modified files using timeStampMaster (fileModificationSkew 10)
allowSystemOperations : Allowing user-supplied system call operations

// * * * * * * * * * * * * * * * * * * * * * * * * * * * * * * * * * * * * * //
Create time

Create mesh for time = 0


PISO: Operating solver in PISO mode

Reading field p

Reading physical velocity field U
Note: only if voidfraction at boundary is 1, U is superficial velocity!!!


Reading momentum exchange field Ksl


Reading voidfraction field voidfraction = (Vgas/Vparticle)


Creating density field rho

Reading particle velocity field Us

Reading/calculating face flux field phi

Generating interstitial face flux field phiByVoidfraction

Selecting incompressible transport model Newtonian
Selecting turbulence model type laminar
Selecting laminar stress model Stokes
No finite volume options present


Reading g
Selecting locateModel engine
Selecting dataExchangeModel twoWayMPI
Starting up LIGGGHTS for first time execution
Executing input script '../DEM/in.liggghts_run'
LIGGGHTS (Version LIGGGHTS-PUBLIC 3.8.0, compiled 2017-12-08-22:42:34 by hwb, git commit unknown)
Reading restart file ...
version 3 8
version 3 8
version 3 8
WARNING: Restart file version does not match LIGGGHTS version (../read_restart.cpp:507)
   --> restart file = Version LIGGGHTS-PUBLIC 3.8.0, compiled 2017-12-08-22:31:09 by hwb, git commit unknown
   --> LIGGGHTS = Version LIGGGHTS-PUBLIC 3.8.0, compiled 2017-12-08-22:42:34 by hwb, git commit unknown
version 3 8
WARNING: Restart file used different 3d processor grid (../read_restart.cpp:587)
  orthogonal box = (-0.05 -0.05 -0.01) to (0.05 0.05 0.5)
  2 by 2 by 1 MPI processor grid
  15278 atoms
INFO: mesh file (../DEM/STL/fluidizedbedriser1.stl) is required, but data will be taken from restart file (../fix_mesh.cpp:417)
Resetting global state of Fix fb1 Style mesh/surface from restart file info
INFO: mesh file (../DEM/STL/fluidizedbedriser2.stl) is required, but data will be taken from restart file (../fix_mesh.cpp:417)
Resetting global state of Fix fb2 Style mesh/surface from restart file info
INFO: mesh file (../DEM/STL/fluidizedbedBioin.stl) is required, but data will be taken from restart file (../fix_mesh.cpp:417)
Resetting global state of Fix fbBioin Style mesh/surface from restart file info
INFO: mesh file (../DEM/STL/fluidizedbedGasin.stl) is required, but data will be taken from restart file (../fix_mesh.cpp:417)
Resetting global state of Fix fbGasin Style mesh/surface from restart file info
INFO: mesh file (../DEM/STL/fluidizedbedOut.stl) is required, but data will be taken from restart file (../fix_mesh.cpp:417)
Resetting global state of Fix fbOut Style mesh/surface from restart file info
Resetting global state of Fix n_neighs_mesh_fb1 Style property/atom from restart file info
Resetting per-atom state of Fix n_neighs_mesh_fb1 Style property/atom from restart file info
Resetting global state of Fix tracker_fb1 Style contacthistory/mesh from restart file info
Resetting per-atom state of Fix tracker_fb1 Style contacthistory/mesh from restart file info
Resetting global state of Fix n_neighs_mesh_fb2 Style property/atom from restart file info
Resetting per-atom state of Fix n_neighs_mesh_fb2 Style property/atom from restart file info
Resetting global state of Fix tracker_fb2 Style contacthistory/mesh from restart file info
Resetting per-atom state of Fix tracker_fb2 Style contacthistory/mesh from restart file info
Resetting global state of Fix n_neighs_mesh_fbGasin Style property/atom from restart file info
Resetting per-atom state of Fix n_neighs_mesh_fbGasin Style property/atom from restart file info
Resetting global state of Fix tracker_fbGasin Style contacthistory/mesh from restart file info
Resetting per-atom state of Fix tracker_fbGasin Style contacthistory/mesh from restart file info
Resetting global state of Fix n_neighs_mesh_fbBioin Style property/atom from restart file info
Resetting per-atom state of Fix n_neighs_mesh_fbBioin Style property/atom from restart file info
Resetting global state of Fix tracker_fbBioin Style contacthistory/mesh from restart file info
Resetting per-atom state of Fix tracker_fbBioin Style contacthistory/mesh from restart file info
Fix particledistribution/discrete (id pdd2): distribution based on mass%:
    pts2: d=2.000000e-03 (max. bounding sphere) mass%=100.000000%
Fix particledistribution/discrete (id pdd2): distribution based on number%:
    pts2: d=2.000000e-03 (max. bounding sphere) number%=100.000000%
couple_every as specified in LIGGGHTS is overriden by calling external program (../fix_cfd_coupling.cpp:114)
WARNING: Changing thermo_temp compute object. This object is deprecated and will be removed in the future. (../compute.cpp:161)
Resetting global state of Fix contacthistory Style contacthistory from restart file info
Resetting per-atom state of Fix contacthistory Style contacthistory from restart file info
Setting up run at Mon Jul 27 01:04:24 2020

Import and parallelization of mesh fb1 containing 9645 triangle(s) successful
Import and parallelization of mesh fb2 containing 1950 triangle(s) successful
Import and parallelization of mesh fbBioin containing 105 triangle(s) successful
Import and parallelization of mesh fbGasin containing 2620 triangle(s) successful
Import and parallelization of mesh fbOut containing 10343 triangle(s) successful
INFO: Resetting random generator for region bc2
INFO: Particle insertion ins2: 125.648639 particles every 1000 steps - particle rate 12564.863928  (mass rate 1.000000e-02)
      12564 particles (mass 9.999312e-03) within 99000 steps
Memory usage per processor = 24.2074 Mbytes
    Step    Atoms         KinEng            rke         Volume       centerOf       dragtota       dragtota       dragtota 
  350000    15278  4.7485588e-10  5.0094675e-10         0.0051   0.0030943355              0              0              0 
Loop time of 4.29153e-06 on 4 procs for 0 steps with 15278 atoms, finish time Mon Jul 27 01:04:24 2020


Pair  time (%) = 0 (0)
Neigh time (%) = 0 (0)
Comm  time (%) = 0 (0)
Outpt time (%) = 0 (0)
Other time (%) = 4.29153e-06 (100)

Nlocal:    3819.5 ave 3850 max 3776 min
Histogram: 1 0 0 0 1 0 0 0 1 1
Nghost:    771 ave 783 max 766 min
Histogram: 2 1 0 0 0 0 0 0 0 1
Neighs:    27105.2 ave 27400 max 26830 min
Histogram: 1 0 0 0 2 0 0 0 0 1

Total # of neighbors = 108421
Ave neighs/atom = 7.09654
Neighbor list builds = 0
Dangerous builds = 0
--> FOAM Warning : You are using sub-time-steps (i.e. CFD TS < coupling time)! Check your settings properly.
Selecting IOModel basicIO
Selecting probeModel off
Selecting voidFractionModel divided
Selecting averagingModel dense
Selecting clockModel standardClock
start clock measurement at t >0.002
Selecting smoothingModel off
Selecting meshMotionModel noMeshMotion

CFDEMcoupling version: cfdem-3.8.1
, compatible to LIGGGHTS version: 3.8.0
, compatible to OF version and build: 5.x-commit-538044ac05c4672b37c7df607dca1116fa88df88

You are currently using:
OF version: 5.x
OF build: 5.x-197d9d3bf20a
CFDEM build: 

cg is set to: 1
LIGGGHTS hosts 2 atom types.
If BC are important, please provide volScalarFields -imp/expParticleForces-
ignoring ddt(voidfraction)
Selecting momCoupleModel implicitCouple

implicit momentum exchange field calculate if alphaP larger than : 1
Selecting forceModel KochHillDrag
 Selecting forceSubModel ImEx
 reading switches:
  looking for treatForceExplicit ...  not found in dict, using default. treatForceExplicit = false
  looking for implForceDEM ...  not found in dict, using default. implForceDEM = false
  looking for verbose ...  not found in dict, using default. verbose = false
  looking for interpolation ...  not found in dict, using default. interpolation = false
  looking for implForceDEMaccumulated ...  not found in dict, using default. implForceDEMaccumulated = false
  looking for scalarViscosity ...  not found in dict, using default. scalarViscosity = false

Selecting forceModel gradPForce
 Selecting forceSubModel ImEx
 reading switches:
  looking for treatForceExplicit ...  not found in dict, using default. treatForceExplicit = true
  looking for verbose ...  not found in dict, using default. verbose = false
  looking for interpolation ...  not found in dict, using default. interpolation = false

Selecting forceModel viscForce
 Selecting forceSubModel ImEx
 reading switches:
  looking for treatForceExplicit ...  not found in dict, using default. treatForceExplicit = true
  looking for verbose ...  not found in dict, using default. verbose = false
  looking for interpolation ...  found in dict. interpolation = true
  looking for scalarViscosity ...  not found in dict, using default. scalarViscosity = false

Selecting liggghtsCommandModel runLiggghts ,provide dicts, numbered from 0 to n
Selecting liggghtsCommandModel writeLiggghts ,provide dicts, numbered from 0 to n
writeLiggghts: A restart file writeName_write_restart ../DEM/post/restart/liggghts.restartCFDEM is written.
solving volume averaged Navier Stokes equations of type A
check if Archimedes lift is necessary (depends on pressure formulation)


Starting time loop

--> FOAM Warning : 
    From function void Foam::timeControl::read(const Foam::dictionary&)
    in file db/functionObjects/timeControl/timeControl.C at line 89
    Reading "/home/hwb/CFDEM/bubbling_fluidized_bed/fluidizedbedTest/CFD/system/controlDict.functions.probes" from line 59 to line 78
    Using deprecated 'outputControl'
    Please use 'writeControl' with 'writeInterval'
Time = 1e-05

Courant Number mean: 1.05859e-05 max: 0.011601

 Coupling...
Starting up LIGGGHTS
Executing command: 'run 100    '
Setting up run at Mon Jul 27 01:04:32 2020

Memory usage per processor = 24.2077 Mbytes
    Step    Atoms         KinEng            rke         Volume       centerOf       dragtota       dragtota       dragtota 
  350000    15278  4.7485588e-10  5.0094675e-10         0.0051   0.0030943355              0              0              0 
insertion: proc 3 at 0 %
insertion: proc 3 at 10 %
insertion: proc 3 at 20 %
insertion: proc 3 at 30 %
insertion: proc 2 at 0 %
insertion: proc 2 at 10 %
insertion: proc 2 at 20 %
insertion: proc 2 at 30 %
insertion: proc 2 at 40 %
insertion: proc 2 at 50 %
insertion: proc 2 at 60 %
insertion: proc 2 at 70 %
insertion: proc 3 at 40 %
insertion: proc 3 at 50 %
insertion: proc 3 at 60 %
insertion: proc 3 at 70 %
insertion: proc 2 at 80 %
insertion: proc 2 at 90 %
insertion: proc 3 at 80 %
insertion: proc 3 at 90 %
insertion: proc 3 at 100 %
insertion: proc 2 at 100 %
INFO: Particle insertion ins2: inserted 125 particle templates (mass 9.948377e-05) at step 350001
 - a total of 125 particle templates (mass 9.948377e-05) inserted so far.
CFD Coupling established at step 350100
  350100    15403    0.026255906    0.002302509         0.0051   0.0033095025              0              0              0 
Loop time of 1.92374 on 4 procs for 100 steps with 15403 atoms, finish time Mon Jul 27 01:04:34 2020


Pair  time (%) = 0.236702 (12.3043)
Neigh time (%) = 0.795516 (41.3527)
Comm  time (%) = 0.0980726 (5.09803)
Outpt time (%) = 0.000225008 (0.0116964)
Other time (%) = 0.79322 (41.2333)

Nlocal:    3850.75 ave 3903 max 3815 min
Histogram: 1 1 0 0 1 0 0 0 0 1
Nghost:    778 ave 794 max 769 min
Histogram: 2 0 0 0 1 0 0 0 0 1
Neighs:    27112.5 ave 27401 max 26842 min
Histogram: 1 0 0 0 2 0 0 0 0 1

Total # of neighbors = 108450
Ave neighs/atom = 7.04084
Neighbor list builds = 100
Dangerous builds = 99
LIGGGHTS finished

 timeStepFraction() = 0.01

Solver level total Eulerian momentum exchange:
  TotalForceImp:  (-0.00123907 -8.23135e-05 -8.82788e-05)
  Warning, these values are based on latest Ksl and Us but prev. iteration U!

DILUPBiCG:  Solving for Ux, Initial residual = 1, Final residual = 1.79207e-07, No Iterations 2
DILUPBiCG:  Solving for Uy, Initial residual = 1, Final residual = 5.00634e-07, No Iterations 2
DILUPBiCG:  Solving for Uz, Initial residual = 1, Final residual = 3.01117e-06, No Iterations 2
DICPCG:  Solving for p, Initial residual = 1, Final residual = 0.0999773, No Iterations 434
DICPCG:  Solving for p, Initial residual = 0.0370221, Final residual = 0.000799046, No Iterations 2
time step continuity errors : sum local = 2.12708e-05, global = -1.66036e-08, cumulative = -1.66036e-08
DICPCG:  Solving for p, Initial residual = 0.00148802, Final residual = 0.000146003, No Iterations 325
DICPCG:  Solving for p, Initial residual = 0.00200056, Final residual = 8.2184e-05, No Iterations 2
time step continuity errors : sum local = 2.35118e-06, global = -6.89104e-08, cumulative = -8.55139e-08
DICPCG:  Solving for p, Initial residual = 0.000111362, Final residual = 1.07857e-05, No Iterations 398
DICPCG:  Solving for p, Initial residual = 0.00013879, Final residual = 7.01862e-06, No Iterations 2
time step continuity errors : sum local = 2.01614e-07, global = -1.79831e-10, cumulative = -8.56938e-08
DICPCG:  Solving for p, Initial residual = 9.60439e-06, Final residual = 9.94499e-07, No Iterations 219
DICPCG:  Solving for p, Initial residual = 8.32279e-06, Final residual = 7.02402e-07, No Iterations 2
time step continuity errors : sum local = 2.01792e-08, global = -1.54906e-09, cumulative = -8.72428e-08
ExecutionTime = 68.31 s  ClockTime = 69 s

Time = 2e-05

Courant Number mean: 0.00595954 max: 0.603423

 timeStepFraction() = 0.02

Solver level total Eulerian momentum exchange:
  TotalForceImp:  (-0.00526149 -0.000340916 -0.0656534)
  Warning, these values are based on latest Ksl and Us but prev. iteration U!

DILUPBiCG:  Solving for Ux, Initial residual = 0.219161, Final residual = 2.99745e-06, No Iterations 2
DILUPBiCG:  Solving for Uy, Initial residual = 0.32749, Final residual = 3.50865e-07, No Iterations 2
DILUPBiCG:  Solving for Uz, Initial residual = 0.620392, Final residual = 1.06513e-06, No Iterations 2
DICPCG:  Solving for p, Initial residual = 0.0123642, Final residual = 0.0012141, No Iterations 403
DICPCG:  Solving for p, Initial residual = 0.600181, Final residual = 0.0159709, No Iterations 2
time step continuity errors : sum local = 2.70283e-05, global = 1.13271e-08, cumulative = -7.59157e-08
DICPCG:  Solving for p, Initial residual = 0.0542706, Final residual = 0.00536399, No Iterations 367
DICPCG:  Solving for p, Initial residual = 0.0550929, Final residual = 0.00301025, No Iterations 2
time step continuity errors : sum local = 3.09018e-06, global = -8.35006e-10, cumulative = -7.67507e-08
DICPCG:  Solving for p, Initial residual = 0.004203, Final residual = 0.000414332, No Iterations 170
DICPCG:  Solving for p, Initial residual = 0.00313423, Final residual = 0.000306156, No Iterations 113
time step continuity errors : sum local = 3.26177e-07, global = 2.36342e-08, cumulative = -5.31165e-08
DICPCG:  Solving for p, Initial residual = 0.000964455, Final residual = 9.43737e-05, No Iterations 247
DICPCG:  Solving for p, Initial residual = 0.000768298, Final residual = 9.48176e-07, No Iterations 424
time step continuity errors : sum local = 1.03666e-09, global = -5.27712e-12, cumulative = -5.31218e-08
ExecutionTime = 116.66 s  ClockTime = 117 s

Time = 3e-05

Courant Number mean: 0.00631878 max: 0.54586

 timeStepFraction() = 0.03

Solver level total Eulerian momentum exchange:
  TotalForceImp:  (-0.0112742 -0.000702293 -0.0981951)
  Warning, these values are based on latest Ksl and Us but prev. iteration U!

DILUPBiCG:  Solving for Ux, Initial residual = 0.0176272, Final residual = 6.78861e-06, No Iterations 1
DILUPBiCG:  Solving for Uy, Initial residual = 0.0797371, Final residual = 1.32114e-07, No Iterations 2
DILUPBiCG:  Solving for Uz, Initial residual = 0.0392134, Final residual = 5.55634e-08, No Iterations 2
DICPCG:  Solving for p, Initial residual = 0.358872, Final residual = 0.00967208, No Iterations 2
DICPCG:  Solving for p, Initial residual = 0.0216714, Final residual = 0.0020672, No Iterations 384
time step continuity errors : sum local = 1.16675e-06, global = -2.14928e-09, cumulative = -5.5271e-08
DICPCG:  Solving for p, Initial residual = 0.207132, Final residual = 0.00637338, No Iterations 2
DICPCG:  Solving for p, Initial residual = 0.011017, Final residual = 0.00107136, No Iterations 389
time step continuity errors : sum local = 1.07918e-07, global = -8.22964e-10, cumulative = -5.6094e-08
DICPCG:  Solving for p, Initial residual = 0.0116452, Final residual = 0.00054056, No Iterations 2
DICPCG:  Solving for p, Initial residual = 0.000691616, Final residual = 6.80092e-05, No Iterations 254
time step continuity errors : sum local = 8.14222e-09, global = -9.28815e-10, cumulative = -5.70228e-08
DICPCG:  Solving for p, Initial residual = 0.000615271, Final residual = 4.72011e-05, No Iterations 2
DICPCG:  Solving for p, Initial residual = 5.48282e-05, Final residual = 9.52351e-07, No Iterations 416
time step continuity errors : sum local = 1.14151e-10, global = 2.07614e-13, cumulative = -5.70226e-08
ExecutionTime = 158.5 s  ClockTime = 159 s

Time = 4e-05

Courant Number mean: 0.0062939 max: 0.518695

 timeStepFraction() = 0.04

Solver level total Eulerian momentum exchange:
  TotalForceImp:  (-0.0191866 -0.00117622 -0.13079)
  Warning, these values are based on latest Ksl and Us but prev. iteration U!

DILUPBiCG:  Solving for Ux, Initial residual = 0.00355756, Final residual = 1.74543e-06, No Iterations 1
DILUPBiCG:  Solving for Uy, Initial residual = 0.015656, Final residual = 7.00931e-06, No Iterations 1
DILUPBiCG:  Solving for Uz, Initial residual = 0.00220679, Final residual = 1.3788e-06, No Iterations 1
DICPCG:  Solving for p, Initial residual = 0.20695, Final residual = 0.0181868, No Iterations 9
DICPCG:  Solving for p, Initial residual = 0.0252037, Final residual = 0.00244761, No Iterations 47
time step continuity errors : sum local = 2.17161e-07, global = -1.50508e-09, cumulative = -5.85277e-08
DICPCG:  Solving for p, Initial residual = 0.00622659, Final residual = 0.000562482, No Iterations 55
DICPCG:  Solving for p, Initial residual = 0.00159466, Final residual = 0.000154956, No Iterations 77
time step continuity errors : sum local = 1.37192e-08, global = -1.36447e-09, cumulative = -5.98922e-08
DICPCG:  Solving for p, Initial residual = 0.000639223, Final residual = 6.31272e-05, No Iterations 329
DICPCG:  Solving for p, Initial residual = 0.0003095, Final residual = 3.06074e-05, No Iterations 44
time step continuity errors : sum local = 2.73989e-09, global = -3.50607e-11, cumulative = -5.99272e-08
DICPCG:  Solving for p, Initial residual = 6.84766e-05, Final residual = 6.77165e-06, No Iterations 162
DICPCG:  Solving for p, Initial residual = 3.27969e-05, Final residual = 9.83041e-07, No Iterations 282
time step continuity errors : sum local = 8.80058e-11, global = -3.62562e-12, cumulative = -5.99308e-08
ExecutionTime = 188.28 s  ClockTime = 189 s

Time = 5e-05

Courant Number mean: 0.00627605 max: 0.500277

 timeStepFraction() = 0.05

Solver level total Eulerian momentum exchange:
  TotalForceImp:  (-0.028728 -0.00174766 -0.162742)
  Warning, these values are based on latest Ksl and Us but prev. iteration U!

DILUPBiCG:  Solving for Ux, Initial residual = 0.00318677, Final residual = 1.30032e-06, No Iterations 1
DILUPBiCG:  Solving for Uy, Initial residual = 0.0132964, Final residual = 5.30388e-06, No Iterations 1
DILUPBiCG:  Solving for Uz, Initial residual = 0.00224969, Final residual = 1.35809e-06, No Iterations 1
DICPCG:  Solving for p, Initial residual = 0.106163, Final residual = 0.0104891, No Iterations 13
DICPCG:  Solving for p, Initial residual = 0.0143524, Final residual = 0.00140182, No Iterations 48
time step continuity errors : sum local = 1.1376e-07, global = 1.13141e-12, cumulative = -5.99297e-08
DICPCG:  Solving for p, Initial residual = 0.00437578, Final residual = 0.00042416, No Iterations 33
DICPCG:  Solving for p, Initial residual = 0.000999499, Final residual = 9.90534e-05, No Iterations 98
time step continuity errors : sum local = 8.03369e-09, global = -4.36886e-11, cumulative = -5.99734e-08
DICPCG:  Solving for p, Initial residual = 0.000764092, Final residual = 7.63496e-05, No Iterations 4
DICPCG:  Solving for p, Initial residual = 8.34105e-05, Final residual = 8.1355e-06, No Iterations 345
time step continuity errors : sum local = 6.59955e-10, global = 4.33751e-13, cumulative = -5.9973e-08
DICPCG:  Solving for p, Initial residual = 0.000162391, Final residual = 6.41089e-06, No Iterations 2
DICPCG:  Solving for p, Initial residual = 8.54346e-06, Final residual = 9.8251e-07, No Iterations 221
time step continuity errors : sum local = 7.98548e-11, global = -8.5044e-12, cumulative = -5.99815e-08
ExecutionTime = 212.03 s  ClockTime = 213 s

Time = 6e-05

Courant Number mean: 0.0062624 max: 0.487594

 timeStepFraction() = 0.06

Solver level total Eulerian momentum exchange:
  TotalForceImp:  (-0.0396328 -0.00240863 -0.193906)
  Warning, these values are based on latest Ksl and Us but prev. iteration U!

DILUPBiCG:  Solving for Ux, Initial residual = 0.00328005, Final residual = 1.13062e-06, No Iterations 1
DILUPBiCG:  Solving for Uy, Initial residual = 0.0128998, Final residual = 4.48921e-06, No Iterations 1
DILUPBiCG:  Solving for Uz, Initial residual = 0.00238975, Final residual = 1.32596e-06, No Iterations 1
DICPCG:  Solving for p, Initial residual = 0.0749676, Final residual = 0.00689306, No Iterations 17
DICPCG:  Solving for p, Initial residual = 0.0102797, Final residual = 0.00101202, No Iterations 51
time step continuity errors : sum local = 8.00677e-08, global = 4.42417e-10, cumulative = -5.9539e-08
DICPCG:  Solving for p, Initial residual = 0.00370018, Final residual = 0.000361848, No Iterations 37
DICPCG:  Solving for p, Initial residual = 0.000840083, Final residual = 8.33752e-05, No Iterations 160
time step continuity errors : sum local = 6.59954e-09, global = 2.66263e-10, cumulative = -5.92728e-08
DICPCG:  Solving for p, Initial residual = 0.000580088, Final residual = 5.72049e-05, No Iterations 12
DICPCG:  Solving for p, Initial residual = 7.77985e-05, Final residual = 7.68906e-06, No Iterations 172
time step continuity errors : sum local = 6.08478e-10, global = 2.07655e-11, cumulative = -5.9252e-08
DICPCG:  Solving for p, Initial residual = 7.6744e-05, Final residual = 5.97289e-06, No Iterations 4
DICPCG:  Solving for p, Initial residual = 6.80037e-06, Final residual = 9.67531e-07, No Iterations 375
time step continuity errors : sum local = 7.65438e-11, global = -2.26275e-13, cumulative = -5.92522e-08
ExecutionTime = 237.34 s  ClockTime = 238 s

Time = 7e-05

Courant Number mean: 0.00625174 max: 0.478038

 timeStepFraction() = 0.07

Solver level total Eulerian momentum exchange:
  TotalForceImp:  (-0.0516625 -0.00314471 -0.224221)
  Warning, these values are based on latest Ksl and Us but prev. iteration U!

DILUPBiCG:  Solving for Ux, Initial residual = 0.00352085, Final residual = 1.05306e-06, No Iterations 1
DILUPBiCG:  Solving for Uy, Initial residual = 0.0130846, Final residual = 4.07331e-06, No Iterations 1
DILUPBiCG:  Solving for Uz, Initial residual = 0.00255617, Final residual = 1.26658e-06, No Iterations 1
DICPCG:  Solving for p, Initial residual = 0.0613168, Final residual = 0.00605427, No Iterations 18
DICPCG:  Solving for p, Initial residual = 0.00903646, Final residual = 0.000892864, No Iterations 52
time step continuity errors : sum local = 7.09565e-08, global = 5.99386e-10, cumulative = -5.86529e-08
DICPCG:  Solving for p, Initial residual = 0.00343177, Final residual = 0.000339155, No Iterations 37
DICPCG:  Solving for p, Initial residual = 0.000750661, Final residual = 7.43986e-05, No Iterations 166
time step continuity errors : sum local = 5.91409e-09, global = 3.68562e-10, cumulative = -5.82843e-08
DICPCG:  Solving for p, Initial residual = 0.000513489, Final residual = 4.7978e-05, No Iterations 16
DICPCG:  Solving for p, Initial residual = 6.98634e-05, Final residual = 6.71299e-06, No Iterations 366
time step continuity errors : sum local = 5.33373e-10, global = 3.37363e-13, cumulative = -5.8284e-08
DICPCG:  Solving for p, Initial residual = 5.18512e-05, Final residual = 4.82854e-06, No Iterations 5
DICPCG:  Solving for p, Initial residual = 5.704e-06, Final residual = 9.99464e-07, No Iterations 45
time step continuity errors : sum local = 7.92622e-11, global = -4.0242e-12, cumulative = -5.8288e-08
ExecutionTime = 259.59 s  ClockTime = 260 s

Time = 8e-05

Courant Number mean: 0.00624348 max: 0.470658

 timeStepFraction() = 0.08

Solver level total Eulerian momentum exchange:
  TotalForceImp:  (-0.0645879 -0.00394354 -0.253695)
  Warning, these values are based on latest Ksl and Us but prev. iteration U!

DILUPBiCG:  Solving for Ux, Initial residual = 0.00382036, Final residual = 1.02734e-06, No Iterations 1
DILUPBiCG:  Solving for Uy, Initial residual = 0.013507, Final residual = 3.88499e-06, No Iterations 1
DILUPBiCG:  Solving for Uz, Initial residual = 0.00272475, Final residual = 1.20798e-06, No Iterations 1
DICPCG:  Solving for p, Initial residual = 0.0541668, Final residual = 0.00516973, No Iterations 19
DICPCG:  Solving for p, Initial residual = 0.00806412, Final residual = 0.000731676, No Iterations 49
time step continuity errors : sum local = 5.92738e-08, global = 5.63156e-10, cumulative = -5.77248e-08
DICPCG:  Solving for p, Initial residual = 0.00314335, Final residual = 0.000313795, No Iterations 35
DICPCG:  Solving for p, Initial residual = 0.000695823, Final residual = 6.94371e-05, No Iterations 164
time step continuity errors : sum local = 5.62813e-09, global = 3.83061e-10, cumulative = -5.73418e-08
DICPCG:  Solving for p, Initial residual = 0.000487776, Final residual = 4.7743e-05, No Iterations 14
DICPCG:  Solving for p, Initial residual = 6.46558e-05, Final residual = 6.4088e-06, No Iterations 382
time step continuity errors : sum local = 5.19243e-10, global = 6.42214e-13, cumulative = -5.73411e-08
DICPCG:  Solving for p, Initial residual = 6.10653e-05, Final residual = 5.21911e-06, No Iterations 4
DICPCG:  Solving for p, Initial residual = 5.94234e-06, Final residual = 9.99975e-07, No Iterations 57
time step continuity errors : sum local = 8.08482e-11, global = -2.47861e-12, cumulative = -5.73436e-08
ExecutionTime = 281.79 s  ClockTime = 283 s

Time = 9e-05

Courant Number mean: 0.00623736 max: 0.464672

 timeStepFraction() = 0.09

Solver level total Eulerian momentum exchange:
  TotalForceImp:  (-0.0782057 -0.00479694 -0.28238)
  Warning, these values are based on latest Ksl and Us but prev. iteration U!

DILUPBiCG:  Solving for Ux, Initial residual = 0.00416771, Final residual = 1.04374e-06, No Iterations 1
DILUPBiCG:  Solving for Uy, Initial residual = 0.0140734, Final residual = 3.83556e-06, No Iterations 1
DILUPBiCG:  Solving for Uz, Initial residual = 0.00289074, Final residual = 1.15875e-06, No Iterations 1
DICPCG:  Solving for p, Initial residual = 0.0497758, Final residual = 0.00490394, No Iterations 19
DICPCG:  Solving for p, Initial residual = 0.00770282, Final residual = 0.000699825, No Iterations 49
time step continuity errors : sum local = 5.8376e-08, global = 5.11211e-10, cumulative = -5.68324e-08
DICPCG:  Solving for p, Initial residual = 0.00300529, Final residual = 0.000286162, No Iterations 35
DICPCG:  Solving for p, Initial residual = 0.000636867, Final residual = 6.30611e-05, No Iterations 154
time step continuity errors : sum local = 5.26399e-09, global = 3.79766e-10, cumulative = -5.64526e-08
DICPCG:  Solving for p, Initial residual = 0.000440979, Final residual = 4.21217e-05, No Iterations 40
DICPCG:  Solving for p, Initial residual = 8.57579e-05, Final residual = 8.3836e-06, No Iterations 367
time step continuity errors : sum local = 6.99548e-10, global = 3.39548e-12, cumulative = -5.64492e-08
DICPCG:  Solving for p, Initial residual = 5.52615e-05, Final residual = 5.44834e-06, No Iterations 5
DICPCG:  Solving for p, Initial residual = 6.41197e-06, Final residual = 9.41369e-07, No Iterations 49
time step continuity errors : sum local = 7.83864e-11, global = -9.35325e-13, cumulative = -5.64502e-08
ExecutionTime = 304.62 s  ClockTime = 306 s

Time = 0.0001

Courant Number mean: 0.00623335 max: 0.46008

 timeStepFraction() = 0.1

Solver level total Eulerian momentum exchange:
  TotalForceImp:  (-0.0923526 -0.00569277 -0.310365)
  Warning, these values are based on latest Ksl and Us but prev. iteration U!

DILUPBiCG:  Solving for Ux, Initial residual = 0.00455373, Final residual = 1.09465e-06, No Iterations 1
DILUPBiCG:  Solving for Uy, Initial residual = 0.0147578, Final residual = 3.8757e-06, No Iterations 1
DILUPBiCG:  Solving for Uz, Initial residual = 0.00305704, Final residual = 1.13034e-06, No Iterations 1
DICPCG:  Solving for p, Initial residual = 0.0464785, Final residual = 0.00462028, No Iterations 19
DICPCG:  Solving for p, Initial residual = 0.00726247, Final residual = 0.000645638, No Iterations 49
time step continuity errors : sum local = 5.57092e-08, global = 4.54861e-10, cumulative = -5.59953e-08
DICPCG:  Solving for p, Initial residual = 0.00283812, Final residual = 0.000274674, No Iterations 27
DICPCG:  Solving for p, Initial residual = 0.000546143, Final residual = 5.29858e-05, No Iterations 185
time step continuity errors : sum local = 4.57576e-09, global = 3.3234e-10, cumulative = -5.5663e-08
DICPCG:  Solving for p, Initial residual = 0.000418399, Final residual = 3.78894e-05, No Iterations 4
DICPCG:  Solving for p, Initial residual = 4.30165e-05, Final residual = 4.2467e-06, No Iterations 370
time step continuity errors : sum local = 3.66595e-10, global = 4.98709e-13, cumulative = -5.56625e-08
DICPCG:  Solving for p, Initial residual = 5.08636e-05, Final residual = 4.11524e-06, No Iterations 4
DICPCG:  Solving for p, Initial residual = 4.74363e-06, Final residual = 9.9244e-07, No Iterations 33
time step continuity errors : sum local = 8.5505e-11, global = -1.36449e-12, cumulative = -5.56638e-08
ExecutionTime = 326.1 s  ClockTime = 327 s

Time = 0.00011

Courant Number mean: 0.00623145 max: 0.459881

 timeStepFraction() = 0.11

Solver level total Eulerian momentum exchange:
  TotalForceImp:  (-0.106865 -0.00661985 -0.337748)
  Warning, these values are based on latest Ksl and Us but prev. iteration U!

DILUPBiCG:  Solving for Ux, Initial residual = 0.00494414, Final residual = 1.17198e-06, No Iterations 1
DILUPBiCG:  Solving for Uy, Initial residual = 0.0154488, Final residual = 3.96805e-06, No Iterations 1
DILUPBiCG:  Solving for Uz, Initial residual = 0.00321368, Final residual = 1.12329e-06, No Iterations 1
DICPCG:  Solving for p, Initial residual = 0.0441379, Final residual = 0.00405562, No Iterations 20
DICPCG:  Solving for p, Initial residual = 0.0066313, Final residual = 0.000632491, No Iterations 49
time step continuity errors : sum local = 5.66362e-08, global = 4.10809e-10, cumulative = -5.5253e-08
DICPCG:  Solving for p, Initial residual = 0.00269399, Final residual = 0.000255596, No Iterations 27
DICPCG:  Solving for p, Initial residual = 0.000495448, Final residual = 4.92825e-05, No Iterations 156
time step continuity errors : sum local = 4.41826e-09, global = 3.38141e-10, cumulative = -5.49149e-08
DICPCG:  Solving for p, Initial residual = 0.00038744, Final residual = 3.84815e-05, No Iterations 2
DICPCG:  Solving for p, Initial residual = 4.24193e-05, Final residual = 4.13091e-06, No Iterations 340
time step continuity errors : sum local = 3.70249e-10, global = 4.87287e-12, cumulative = -5.491e-08
DICPCG:  Solving for p, Initial residual = 6.51639e-05, Final residual = 6.46335e-06, No Iterations 3
DICPCG:  Solving for p, Initial residual = 6.86251e-06, Final residual = 9.96452e-07, No Iterations 52
time step continuity errors : sum local = 8.91424e-11, global = 3.12176e-12, cumulative = -5.49069e-08
ExecutionTime = 346.47 s  ClockTime = 348 s

Time = 0.00012

Courant Number mean: 0.00623159 max: 0.459534

 timeStepFraction() = 0.12

Solver level total Eulerian momentum exchange:
  TotalForceImp:  (-0.121627 -0.0075743 -0.364639)
  Warning, these values are based on latest Ksl and Us but prev. iteration U!

DILUPBiCG:  Solving for Ux, Initial residual = 0.00535253, Final residual = 1.27833e-06, No Iterations 1
DILUPBiCG:  Solving for Uy, Initial residual = 0.0161899, Final residual = 4.12349e-06, No Iterations 1
DILUPBiCG:  Solving for Uz, Initial residual = 0.00337157, Final residual = 1.1392e-06, No Iterations 1
DICPCG:  Solving for p, Initial residual = 0.041838, Final residual = 0.00417011, No Iterations 19
DICPCG:  Solving for p, Initial residual = 0.00657239, Final residual = 0.000647207, No Iterations 48
time step continuity errors : sum local = 6.0199e-08, global = 3.6782e-10, cumulative = -5.45391e-08
DICPCG:  Solving for p, Initial residual = 0.00258056, Final residual = 0.000247188, No Iterations 26
DICPCG:  Solving for p, Initial residual = 0.000479779, Final residual = 4.77455e-05, No Iterations 147
time step continuity errors : sum local = 4.44562e-09, global = 3.09379e-10, cumulative = -5.42297e-08
DICPCG:  Solving for p, Initial residual = 0.000344004, Final residual = 3.27343e-05, No Iterations 6
DICPCG:  Solving for p, Initial residual = 3.86756e-05, Final residual = 3.60286e-06, No Iterations 398
time step continuity errors : sum local = 3.35397e-10, global = -1.10789e-13, cumulative = -5.42298e-08
DICPCG:  Solving for p, Initial residual = 5.92713e-05, Final residual = 5.75662e-06, No Iterations 3
DICPCG:  Solving for p, Initial residual = 6.10959e-06, Final residual = 9.72674e-07, No Iterations 86
time step continuity errors : sum local = 9.03857e-11, global = 6.69219e-13, cumulative = -5.42291e-08
ExecutionTime = 369.63 s  ClockTime = 371 s

Time = 0.00013

Courant Number mean: 0.00623377 max: 0.459153

 timeStepFraction() = 0.13

Solver level total Eulerian momentum exchange:
  TotalForceImp:  (-0.136504 -0.00855245 -0.391123)
  Warning, these values are based on latest Ksl and Us but prev. iteration U!

DILUPBiCG:  Solving for Ux, Initial residual = 0.00575394, Final residual = 1.40316e-06, No Iterations 1
DILUPBiCG:  Solving for Uy, Initial residual = 0.0168731, Final residual = 4.31143e-06, No Iterations 1
DILUPBiCG:  Solving for Uz, Initial residual = 0.00352119, Final residual = 1.16298e-06, No Iterations 1
DICPCG:  Solving for p, Initial residual = 0.0398885, Final residual = 0.0035982, No Iterations 20
DICPCG:  Solving for p, Initial residual = 0.00592864, Final residual = 0.000575672, No Iterations 48
time step continuity errors : sum local = 5.56342e-08, global = 3.43058e-10, cumulative = -5.38861e-08
DICPCG:  Solving for p, Initial residual = 0.00235069, Final residual = 0.000217623, No Iterations 26
DICPCG:  Solving for p, Initial residual = 0.000419635, Final residual = 4.01292e-05, No Iterations 97
time step continuity errors : sum local = 3.88253e-09, global = 3.17494e-10, cumulative = -5.35686e-08
DICPCG:  Solving for p, Initial residual = 0.00026685, Final residual = 2.5121e-05, No Iterations 104
DICPCG:  Solving for p, Initial residual = 9.06846e-05, Final residual = 8.93669e-06, No Iterations 350
time step continuity errors : sum local = 8.6431e-10, global = -1.58611e-12, cumulative = -5.35702e-08
DICPCG:  Solving for p, Initial residual = 5.88287e-05, Final residual = 5.5424e-06, No Iterations 4
DICPCG:  Solving for p, Initial residual = 6.22092e-06, Final residual = 9.86014e-07, No Iterations 173
time step continuity errors : sum local = 9.51646e-11, global = 3.93435e-12, cumulative = -5.35662e-08
ExecutionTime = 394.64 s  ClockTime = 396 s

Time = 0.00014

Courant Number mean: 0.00623788 max: 0.458757

 timeStepFraction() = 0.14

Solver level total Eulerian momentum exchange:
  TotalForceImp:  (-0.151417 -0.00954252 -0.417274)
  Warning, these values are based on latest Ksl and Us but prev. iteration U!

DILUPBiCG:  Solving for Ux, Initial residual = 0.00614417, Final residual = 1.54796e-06, No Iterations 1
DILUPBiCG:  Solving for Uy, Initial residual = 0.0175087, Final residual = 4.50795e-06, No Iterations 1
DILUPBiCG:  Solving for Uz, Initial residual = 0.00366128, Final residual = 1.20132e-06, No Iterations 1
DICPCG:  Solving for p, Initial residual = 0.0382072, Final residual = 0.00381062, No Iterations 19
DICPCG:  Solving for p, Initial residual = 0.00596916, Final residual = 0.000564626, No Iterations 48
time step continuity errors : sum local = 5.66248e-08, global = 3.07955e-10, cumulative = -5.32583e-08
DICPCG:  Solving for p, Initial residual = 0.00225754, Final residual = 0.000225709, No Iterations 23
DICPCG:  Solving for p, Initial residual = 0.000410766, Final residual = 3.90103e-05, No Iterations 95
time step continuity errors : sum local = 3.91602e-09, global = 2.8855e-10, cumulative = -5.29697e-08
DICPCG:  Solving for p, Initial residual = 0.000247263, Final residual = 2.45623e-05, No Iterations 92
DICPCG:  Solving for p, Initial residual = 7.77637e-05, Final residual = 7.53148e-06, No Iterations 358
time step continuity errors : sum local = 7.5584e-10, global = -1.21967e-13, cumulative = -5.29698e-08
DICPCG:  Solving for p, Initial residual = 5.56473e-05, Final residual = 4.68168e-06, No Iterations 4
DICPCG:  Solving for p, Initial residual = 5.35065e-06, Final residual = 9.64836e-07, No Iterations 127
time step continuity errors : sum local = 9.66374e-11, global = 2.86446e-12, cumulative = -5.2967e-08
ExecutionTime = 418.35 s  ClockTime = 420 s

Time = 0.00015

Courant Number mean: 0.00624384 max: 0.458354

 timeStepFraction() = 0.15

Solver level total Eulerian momentum exchange:
  TotalForceImp:  (-0.166288 -0.0105436 -0.443168)
  Warning, these values are based on latest Ksl and Us but prev. iteration U!

DILUPBiCG:  Solving for Ux, Initial residual = 0.00652126, Final residual = 1.71043e-06, No Iterations 1
DILUPBiCG:  Solving for Uy, Initial residual = 0.0180859, Final residual = 4.74672e-06, No Iterations 1
DILUPBiCG:  Solving for Uz, Initial residual = 0.00379306, Final residual = 1.25783e-06, No Iterations 1
DICPCG:  Solving for p, Initial residual = 0.0367934, Final residual = 0.00329897, No Iterations 20
DICPCG:  Solving for p, Initial residual = 0.00538101, Final residual = 0.000534236, No Iterations 48
time step continuity errors : sum local = 5.55759e-08, global = 2.71707e-10, cumulative = -5.26953e-08
DICPCG:  Solving for p, Initial residual = 0.00213672, Final residual = 0.000197273, No Iterations 26
DICPCG:  Solving for p, Initial residual = 0.000383153, Final residual = 3.67861e-05, No Iterations 95
time step continuity errors : sum local = 3.83117e-09, global = 2.59939e-10, cumulative = -5.24353e-08
DICPCG:  Solving for p, Initial residual = 0.000227973, Final residual = 2.25575e-05, No Iterations 92
DICPCG:  Solving for p, Initial residual = 7.07596e-05, Final residual = 6.77109e-06, No Iterations 355
time step continuity errors : sum local = 7.05022e-10, global = 6.04973e-13, cumulative = -5.24347e-08
DICPCG:  Solving for p, Initial residual = 4.83757e-05, Final residual = 4.11029e-06, No Iterations 4
DICPCG:  Solving for p, Initial residual = 4.66268e-06, Final residual = 9.77927e-07, No Iterations 56
time step continuity errors : sum local = 1.01648e-10, global = -3.59211e-14, cumulative = -5.24348e-08
ExecutionTime = 440.42 s  ClockTime = 442 s

Time = 0.00016

Courant Number mean: 0.00625166 max: 0.457959

 timeStepFraction() = 0.16

Solver level total Eulerian momentum exchange:
  TotalForceImp:  (-0.18106 -0.0115475 -0.468885)
  Warning, these values are based on latest Ksl and Us but prev. iteration U!

DILUPBiCG:  Solving for Ux, Initial residual = 0.00689439, Final residual = 1.90272e-06, No Iterations 1
DILUPBiCG:  Solving for Uy, Initial residual = 0.0186179, Final residual = 5.00043e-06, No Iterations 1
DILUPBiCG:  Solving for Uz, Initial residual = 0.00392395, Final residual = 1.32115e-06, No Iterations 1
DICPCG:  Solving for p, Initial residual = 0.0353539, Final residual = 0.0031994, No Iterations 20
DICPCG:  Solving for p, Initial residual = 0.00515843, Final residual = 0.000500547, No Iterations 49
time step continuity errors : sum local = 5.40012e-08, global = 2.41376e-10, cumulative = -5.21934e-08
DICPCG:  Solving for p, Initial residual = 0.00208007, Final residual = 0.000200501, No Iterations 26
DICPCG:  Solving for p, Initial residual = 0.000373476, Final residual = 3.70901e-05, No Iterations 108
time step continuity errors : sum local = 4.00609e-09, global = 2.34053e-10, cumulative = -5.19593e-08
DICPCG:  Solving for p, Initial residual = 0.000243731, Final residual = 2.35944e-05, No Iterations 96
DICPCG:  Solving for p, Initial residual = 7.61195e-05, Final residual = 7.17513e-06, No Iterations 354
time step continuity errors : sum local = 7.74815e-10, global = -1.55851e-12, cumulative = -5.19609e-08
DICPCG:  Solving for p, Initial residual = 3.42139e-05, Final residual = 3.28912e-06, No Iterations 14
DICPCG:  Solving for p, Initial residual = 4.85347e-06, Final residual = 9.9406e-07, No Iterations 49
time step continuity errors : sum local = 1.0721e-10, global = -4.57778e-13, cumulative = -5.19614e-08
ExecutionTime = 462.51 s  ClockTime = 464 s

Time = 0.00017

Courant Number mean: 0.00626144 max: 0.485065

 timeStepFraction() = 0.17

Solver level total Eulerian momentum exchange:
  TotalForceImp:  (-0.195696 -0.0125542 -0.4945)
  Warning, these values are based on latest Ksl and Us but prev. iteration U!

DILUPBiCG:  Solving for Ux, Initial residual = 0.00725275, Final residual = 2.1152e-06, No Iterations 1
DILUPBiCG:  Solving for Uy, Initial residual = 0.019086, Final residual = 5.27519e-06, No Iterations 1
DILUPBiCG:  Solving for Uz, Initial residual = 0.00405363, Final residual = 1.38928e-06, No Iterations 1
DICPCG:  Solving for p, Initial residual = 0.0337701, Final residual = 0.00309116, No Iterations 20
DICPCG:  Solving for p, Initial residual = 0.00497632, Final residual = 0.000488791, No Iterations 49
time step continuity errors : sum local = 5.4594e-08, global = 2.14148e-10, cumulative = -5.17472e-08
DICPCG:  Solving for p, Initial residual = 0.00199296, Final residual = 0.000197147, No Iterations 25
DICPCG:  Solving for p, Initial residual = 0.000357206, Final residual = 3.42899e-05, No Iterations 100
time step continuity errors : sum local = 3.83437e-09, global = 2.11616e-10, cumulative = -5.15356e-08
DICPCG:  Solving for p, Initial residual = 0.000228341, Final residual = 2.26585e-05, No Iterations 92
DICPCG:  Solving for p, Initial residual = 7.26625e-05, Final residual = 6.89743e-06, No Iterations 318
time step continuity errors : sum local = 7.71157e-10, global = 1.78824e-12, cumulative = -5.15338e-08
DICPCG:  Solving for p, Initial residual = 3.14087e-05, Final residual = 3.09858e-06, No Iterations 14
DICPCG:  Solving for p, Initial residual = 4.52951e-06, Final residual = 9.35957e-07, No Iterations 43
time step continuity errors : sum local = 1.04527e-10, global = 5.61415e-13, cumulative = -5.15332e-08
ExecutionTime = 483.46 s  ClockTime = 485 s

Time = 0.00018

Courant Number mean: 0.00627314 max: 0.532372

 timeStepFraction() = 0.18

Solver level total Eulerian momentum exchange:
  TotalForceImp:  (-0.210144 -0.0135499 -0.520058)
  Warning, these values are based on latest Ksl and Us but prev. iteration U!

DILUPBiCG:  Solving for Ux, Initial residual = 0.00759956, Final residual = 2.3469e-06, No Iterations 1
DILUPBiCG:  Solving for Uy, Initial residual = 0.0194923, Final residual = 5.55778e-06, No Iterations 1
DILUPBiCG:  Solving for Uz, Initial residual = 0.00417912, Final residual = 1.46137e-06, No Iterations 1
DICPCG:  Solving for p, Initial residual = 0.0326078, Final residual = 0.00292432, No Iterations 20
DICPCG:  Solving for p, Initial residual = 0.00474579, Final residual = 0.000458456, No Iterations 49
time step continuity errors : sum local = 5.29945e-08, global = 1.91657e-10, cumulative = -5.13416e-08
DICPCG:  Solving for p, Initial residual = 0.0018534, Final residual = 0.000176158, No Iterations 26
DICPCG:  Solving for p, Initial residual = 0.000332429, Final residual = 3.23095e-05, No Iterations 132
time step continuity errors : sum local = 3.73915e-09, global = 1.95333e-10, cumulative = -5.11462e-08
DICPCG:  Solving for p, Initial residual = 0.000217598, Final residual = 1.96988e-05, No Iterations 6
DICPCG:  Solving for p, Initial residual = 2.39659e-05, Final residual = 2.22844e-06, No Iterations 386
time step continuity errors : sum local = 2.57878e-10, global = 1.04364e-12, cumulative = -5.11452e-08
DICPCG:  Solving for p, Initial residual = 4.13391e-05, Final residual = 3.41873e-06, No Iterations 2
DICPCG:  Solving for p, Initial residual = 3.86795e-06, Final residual = 9.94784e-07, No Iterations 52
time step continuity errors : sum local = 1.15003e-10, global = 1.01894e-12, cumulative = -5.11442e-08
ExecutionTime = 504.71 s  ClockTime = 506 s

Time = 0.00019

Courant Number mean: 0.00628677 max: 0.580016

 timeStepFraction() = 0.19

Solver level total Eulerian momentum exchange:
  TotalForceImp:  (-0.224352 -0.0145368 -0.545605)
  Warning, these values are based on latest Ksl and Us but prev. iteration U!

DILUPBiCG:  Solving for Ux, Initial residual = 0.00792367, Final residual = 2.59918e-06, No Iterations 1
DILUPBiCG:  Solving for Uy, Initial residual = 0.0198409, Final residual = 5.87755e-06, No Iterations 1
DILUPBiCG:  Solving for Uz, Initial residual = 0.00430249, Final residual = 1.53915e-06, No Iterations 1
DICPCG:  Solving for p, Initial residual = 0.0311851, Final residual = 0.0027971, No Iterations 20
DICPCG:  Solving for p, Initial residual = 0.00455676, Final residual = 0.000430401, No Iterations 49
time step continuity errors : sum local = 5.14271e-08, global = 1.75192e-10, cumulative = -5.0969e-08
DICPCG:  Solving for p, Initial residual = 0.00178014, Final residual = 0.000176966, No Iterations 23
DICPCG:  Solving for p, Initial residual = 0.000308691, Final residual = 2.98992e-05, No Iterations 98
time step continuity errors : sum local = 3.57659e-09, global = 1.78389e-10, cumulative = -5.07906e-08
DICPCG:  Solving for p, Initial residual = 0.000198108, Final residual = 1.94239e-05, No Iterations 84
DICPCG:  Solving for p, Initial residual = 6.06959e-05, Final residual = 6.06269e-06, No Iterations 152
time step continuity errors : sum local = 7.25154e-10, global = 6.8903e-11, cumulative = -5.07217e-08
DICPCG:  Solving for p, Initial residual = 2.66562e-05, Final residual = 2.60059e-06, No Iterations 310
DICPCG:  Solving for p, Initial residual = 2.56004e-05, Final residual = 9.96499e-07, No Iterations 77
time step continuity errors : sum local = 1.19085e-10, global = 6.04956e-12, cumulative = -5.07156e-08
ExecutionTime = 529.87 s  ClockTime = 531 s

Time = 0.0002

Courant Number mean: 0.00630214 max: 0.627833

 timeStepFraction() = 0.2

Solver level total Eulerian momentum exchange:
  TotalForceImp:  (-0.238305 -0.015514 -0.57117)
  Warning, these values are based on latest Ksl and Us but prev. iteration U!

DILUPBiCG:  Solving for Ux, Initial residual = 0.00822059, Final residual = 2.86678e-06, No Iterations 1
DILUPBiCG:  Solving for Uy, Initial residual = 0.0200909, Final residual = 6.18989e-06, No Iterations 1
DILUPBiCG:  Solving for Uz, Initial residual = 0.00441903, Final residual = 1.61995e-06, No Iterations 1
DICPCG:  Solving for p, Initial residual = 0.0299522, Final residual = 0.00272869, No Iterations 20
DICPCG:  Solving for p, Initial residual = 0.00442759, Final residual = 0.000437168, No Iterations 49
time step continuity errors : sum local = 5.39165e-08, global = 1.27392e-10, cumulative = -5.05883e-08
DICPCG:  Solving for p, Initial residual = 0.00174866, Final residual = 0.000171313, No Iterations 26
DICPCG:  Solving for p, Initial residual = 0.000317873, Final residual = 3.11486e-05, No Iterations 136
time step continuity errors : sum local = 3.84605e-09, global = 1.34055e-10, cumulative = -5.04542e-08
DICPCG:  Solving for p, Initial residual = 0.000218432, Final residual = 2.09745e-05, No Iterations 6
DICPCG:  Solving for p, Initial residual = 2.48683e-05, Final residual = 2.44115e-06, No Iterations 230
time step continuity errors : sum local = 3.01414e-10, global = 2.6835e-11, cumulative = -5.04274e-08
DICPCG:  Solving for p, Initial residual = 4.42958e-05, Final residual = 2.58903e-06, No Iterations 2
DICPCG:  Solving for p, Initial residual = 3.10128e-06, Final residual = 9.94903e-07, No Iterations 289
time step continuity errors : sum local = 1.22828e-10, global = 1.18179e-12, cumulative = -5.04262e-08
ExecutionTime = 553.22 s  ClockTime = 555 s

Time = 0.00021

Courant Number mean: 0.00631925 max: 0.675787

 timeStepFraction() = 0.21

Solver level total Eulerian momentum exchange:
  TotalForceImp:  (-0.25199 -0.0164688 -0.596795)
  Warning, these values are based on latest Ksl and Us but prev. iteration U!

DILUPBiCG:  Solving for Ux, Initial residual = 0.0084976, Final residual = 3.1563e-06, No Iterations 1
DILUPBiCG:  Solving for Uy, Initial residual = 0.0203053, Final residual = 6.50835e-06, No Iterations 1
DILUPBiCG:  Solving for Uz, Initial residual = 0.00453923, Final residual = 1.70692e-06, No Iterations 1
DICPCG:  Solving for p, Initial residual = 0.0286986, Final residual = 0.00267077, No Iterations 20
DICPCG:  Solving for p, Initial residual = 0.00428432, Final residual = 0.000421173, No Iterations 49
time step continuity errors : sum local = 5.35909e-08, global = 1.80053e-10, cumulative = -5.02461e-08
DICPCG:  Solving for p, Initial residual = 0.00168767, Final residual = 0.000168551, No Iterations 23
DICPCG:  Solving for p, Initial residual = 0.000295542, Final residual = 2.89477e-05, No Iterations 97
time step continuity errors : sum local = 3.68742e-09, global = 1.83998e-10, cumulative = -5.00621e-08
DICPCG:  Solving for p, Initial residual = 0.000190047, Final residual = 1.7969e-05, No Iterations 84
DICPCG:  Solving for p, Initial residual = 5.71877e-05, Final residual = 5.57478e-06, No Iterations 310
time step continuity errors : sum local = 7.10055e-10, global = -6.53056e-12, cumulative = -5.00687e-08
DICPCG:  Solving for p, Initial residual = 2.63964e-05, Final residual = 2.42214e-06, No Iterations 14
DICPCG:  Solving for p, Initial residual = 3.65884e-06, Final residual = 9.73637e-07, No Iterations 89
time step continuity errors : sum local = 1.23897e-10, global = 1.36334e-12, cumulative = -5.00673e-08
ExecutionTime = 574.94 s  ClockTime = 577 s

Time = 0.00022

Courant Number mean: 0.00633801 max: 0.723728

 timeStepFraction() = 0.22

Solver level total Eulerian momentum exchange:
  TotalForceImp:  (-0.265397 -0.0174037 -0.622492)
  Warning, these values are based on latest Ksl and Us but prev. iteration U!

DILUPBiCG:  Solving for Ux, Initial residual = 0.00875026, Final residual = 3.45627e-06, No Iterations 1
DILUPBiCG:  Solving for Uy, Initial residual = 0.0204271, Final residual = 6.81439e-06, No Iterations 1
DILUPBiCG:  Solving for Uz, Initial residual = 0.00464656, Final residual = 1.79089e-06, No Iterations 1
DICPCG:  Solving for p, Initial residual = 0.0277502, Final residual = 0.00255446, No Iterations 20
DICPCG:  Solving for p, Initial residual = 0.00411369, Final residual = 0.000375881, No Iterations 50
time step continuity errors : sum local = 4.92703e-08, global = 1.37574e-10, cumulative = -4.99297e-08
DICPCG:  Solving for p, Initial residual = 0.00161547, Final residual = 0.000158408, No Iterations 23
DICPCG:  Solving for p, Initial residual = 0.00027664, Final residual = 2.70739e-05, No Iterations 141
time step continuity errors : sum local = 3.55269e-09, global = 1.52452e-10, cumulative = -4.97773e-08
DICPCG:  Solving for p, Initial residual = 0.000201827, Final residual = 1.80836e-05, No Iterations 6
DICPCG:  Solving for p, Initial residual = 2.19909e-05, Final residual = 2.04654e-06, No Iterations 379
time step continuity errors : sum local = 2.68541e-10, global = 1.09e-12, cumulative = -4.97762e-08
DICPCG:  Solving for p, Initial residual = 3.54818e-05, Final residual = 2.6647e-06, No Iterations 2
DICPCG:  Solving for p, Initial residual = 3.05901e-06, Final residual = 9.96171e-07, No Iterations 33
time step continuity errors : sum local = 1.30649e-10, global = 1.86674e-12, cumulative = -4.97743e-08
ExecutionTime = 595.58 s  ClockTime = 597 s

Time = 0.00023

Courant Number mean: 0.00635837 max: 0.771591

 timeStepFraction() = 0.23

Solver level total Eulerian momentum exchange:
  TotalForceImp:  (-0.278511 -0.0183095 -0.648291)
  Warning, these values are based on latest Ksl and Us but prev. iteration U!

DILUPBiCG:  Solving for Ux, Initial residual = 0.00897816, Final residual = 3.77564e-06, No Iterations 1
DILUPBiCG:  Solving for Uy, Initial residual = 0.0205016, Final residual = 7.14134e-06, No Iterations 1
DILUPBiCG:  Solving for Uz, Initial residual = 0.00474981, Final residual = 1.88497e-06, No Iterations 1
DICPCG:  Solving for p, Initial residual = 0.0267044, Final residual = 0.00248133, No Iterations 20
DICPCG:  Solving for p, Initial residual = 0.00397179, Final residual = 0.000364653, No Iterations 50
time step continuity errors : sum local = 4.91968e-08, global = 1.23409e-10, cumulative = -4.96509e-08
DICPCG:  Solving for p, Initial residual = 0.00154879, Final residual = 0.000152636, No Iterations 23
DICPCG:  Solving for p, Initial residual = 0.000267463, Final residual = 2.61939e-05, No Iterations 140
time step continuity errors : sum local = 3.53771e-09, global = 1.35967e-10, cumulative = -4.95149e-08
DICPCG:  Solving for p, Initial residual = 0.000193549, Final residual = 1.74558e-05, No Iterations 6
DICPCG:  Solving for p, Initial residual = 2.11726e-05, Final residual = 2.0563e-06, No Iterations 375
time step continuity errors : sum local = 2.77716e-10, global = 1.0456e-12, cumulative = -4.95139e-08
DICPCG:  Solving for p, Initial residual = 3.51695e-05, Final residual = 2.58233e-06, No Iterations 2
DICPCG:  Solving for p, Initial residual = 2.96442e-06, Final residual = 9.98656e-07, No Iterations 31
time step continuity errors : sum local = 1.34824e-10, global = 1.47942e-12, cumulative = -4.95124e-08
ExecutionTime = 616 s  ClockTime = 618 s

Time = 0.00024

Courant Number mean: 0.00638034 max: 0.819238

 timeStepFraction() = 0.24

Solver level total Eulerian momentum exchange:
  TotalForceImp:  (-0.291353 -0.0191966 -0.674218)
  Warning, these values are based on latest Ksl and Us but prev. iteration U!

DILUPBiCG:  Solving for Ux, Initial residual = 0.00918614, Final residual = 4.10413e-06, No Iterations 1
DILUPBiCG:  Solving for Uy, Initial residual = 0.0205279, Final residual = 7.46082e-06, No Iterations 1
DILUPBiCG:  Solving for Uz, Initial residual = 0.00484865, Final residual = 1.98826e-06, No Iterations 1
DICPCG:  Solving for p, Initial residual = 0.0258673, Final residual = 0.0024207, No Iterations 20
DICPCG:  Solving for p, Initial residual = 0.00386688, Final residual = 0.000350568, No Iterations 50
time step continuity errors : sum local = 4.86295e-08, global = 1.13357e-10, cumulative = -4.93991e-08
DICPCG:  Solving for p, Initial residual = 0.00152767, Final residual = 0.000146967, No Iterations 23
DICPCG:  Solving for p, Initial residual = 0.00026106, Final residual = 2.57183e-05, No Iterations 126
time step continuity errors : sum local = 3.57135e-09, global = 1.25026e-10, cumulative = -4.9274e-08
DICPCG:  Solving for p, Initial residual = 0.000188409, Final residual = 1.85739e-05, No Iterations 3
DICPCG:  Solving for p, Initial residual = 1.98917e-05, Final residual = 1.98719e-06, No Iterations 235
time step continuity errors : sum local = 2.75946e-10, global = 3.03399e-11, cumulative = -4.92437e-08
DICPCG:  Solving for p, Initial residual = 4.09401e-05, Final residual = 2.31463e-06, No Iterations 2
DICPCG:  Solving for p, Initial residual = 2.78856e-06, Final residual = 9.98386e-07, No Iterations 289
time step continuity errors : sum local = 1.38622e-10, global = -4.73595e-12, cumulative = -4.92484e-08
ExecutionTime = 639.07 s  ClockTime = 641 s

Time = 0.00025

Courant Number mean: 0.00640383 max: 0.866756

 timeStepFraction() = 0.25

Solver level total Eulerian momentum exchange:
  TotalForceImp:  (-0.30392 -0.0200637 -0.700273)
  Warning, these values are based on latest Ksl and Us but prev. iteration U!

DILUPBiCG:  Solving for Ux, Initial residual = 0.0093696, Final residual = 4.45787e-06, No Iterations 1
DILUPBiCG:  Solving for Uy, Initial residual = 0.0205183, Final residual = 7.78829e-06, No Iterations 1
DILUPBiCG:  Solving for Uz, Initial residual = 0.00494361, Final residual = 2.10894e-06, No Iterations 1
DICPCG:  Solving for p, Initial residual = 0.024737, Final residual = 0.00235541, No Iterations 20
DICPCG:  Solving for p, Initial residual = 0.00376281, Final residual = 0.000340918, No Iterations 50
time step continuity errors : sum local = 4.85884e-08, global = 9.86258e-11, cumulative = -4.91498e-08
DICPCG:  Solving for p, Initial residual = 0.00146927, Final residual = 0.000145298, No Iterations 23
DICPCG:  Solving for p, Initial residual = 0.000255118, Final residual = 2.43393e-05, No Iterations 146
time step continuity errors : sum local = 3.47257e-09, global = 1.18889e-10, cumulative = -4.90309e-08
DICPCG:  Solving for p, Initial residual = 0.0001957, Final residual = 1.8634e-05, No Iterations 3
DICPCG:  Solving for p, Initial residual = 1.99503e-05, Final residual = 1.93812e-06, No Iterations 212
time step continuity errors : sum local = 2.76517e-10, global = 1.54361e-11, cumulative = -4.90155e-08
DICPCG:  Solving for p, Initial residual = 3.62794e-05, Final residual = 2.29135e-06, No Iterations 2
DICPCG:  Solving for p, Initial residual = 2.70552e-06, Final residual = 9.87153e-07, No Iterations 86
time step continuity errors : sum local = 1.40829e-10, global = 1.19495e-11, cumulative = -4.90035e-08
ExecutionTime = 657.14 s  ClockTime = 659 s

Time = 0.00026

Courant Number mean: 0.00642882 max: 0.914163

 timeStepFraction() = 0.26

Solver level total Eulerian momentum exchange:
  TotalForceImp:  (-0.316192 -0.0208969 -0.726469)
  Warning, these values are based on latest Ksl and Us but prev. iteration U!

DILUPBiCG:  Solving for Ux, Initial residual = 0.00952926, Final residual = 4.8038e-06, No Iterations 1
DILUPBiCG:  Solving for Uy, Initial residual = 0.0204607, Final residual = 8.14665e-06, No Iterations 1
DILUPBiCG:  Solving for Uz, Initial residual = 0.00503486, Final residual = 2.23916e-06, No Iterations 1
DICPCG:  Solving for p, Initial residual = 0.0239658, Final residual = 0.00225924, No Iterations 20
DICPCG:  Solving for p, Initial residual = 0.00363061, Final residual = 0.000335264, No Iterations 50
time step continuity errors : sum local = 4.90362e-08, global = 1.33453e-10, cumulative = -4.88701e-08
DICPCG:  Solving for p, Initial residual = 0.00141631, Final residual = 0.000139733, No Iterations 23
DICPCG:  Solving for p, Initial residual = 0.000245813, Final residual = 2.42059e-05, No Iterations 147
time step continuity errors : sum local = 3.54401e-09, global = 1.39287e-10, cumulative = -4.87308e-08
DICPCG:  Solving for p, Initial residual = 0.000195485, Final residual = 1.90882e-05, No Iterations 3
DICPCG:  Solving for p, Initial residual = 2.03316e-05, Final residual = 2.02552e-06, No Iterations 206
time step continuity errors : sum local = 2.96554e-10, global = 1.70707e-11, cumulative = -4.87137e-08
DICPCG:  Solving for p, Initial residual = 3.78352e-05, Final residual = 2.43754e-06, No Iterations 2
DICPCG:  Solving for p, Initial residual = 2.86781e-06, Final residual = 9.9497e-07, No Iterations 69
time step continuity errors : sum local = 1.4566e-10, global = 1.53511e-11, cumulative = -4.86984e-08
ExecutionTime = 674.56 s  ClockTime = 677 s

Time = 0.00027

Courant Number mean: 0.00645526 max: 0.9613

 timeStepFraction() = 0.27

Solver level total Eulerian momentum exchange:
  TotalForceImp:  (-0.328153 -0.0216839 -0.752831)
  Warning, these values are based on latest Ksl and Us but prev. iteration U!

DILUPBiCG:  Solving for Ux, Initial residual = 0.00966224, Final residual = 5.15887e-06, No Iterations 1
DILUPBiCG:  Solving for Uy, Initial residual = 0.0203604, Final residual = 8.57438e-06, No Iterations 1
DILUPBiCG:  Solving for Uz, Initial residual = 0.00511829, Final residual = 2.37325e-06, No Iterations 1
DICPCG:  Solving for p, Initial residual = 0.0231988, Final residual = 0.00223746, No Iterations 20
DICPCG:  Solving for p, Initial residual = 0.00356047, Final residual = 0.000326875, No Iterations 50
time step continuity errors : sum local = 4.90272e-08, global = 1.19452e-10, cumulative = -4.85789e-08
DICPCG:  Solving for p, Initial residual = 0.0013951, Final residual = 0.000139157, No Iterations 14
DICPCG:  Solving for p, Initial residual = 0.000215034, Final residual = 2.10165e-05, No Iterations 155
time step continuity errors : sum local = 3.15536e-09, global = 1.30277e-10, cumulative = -4.84486e-08
DICPCG:  Solving for p, Initial residual = 0.000206117, Final residual = 1.91408e-05, No Iterations 2
DICPCG:  Solving for p, Initial residual = 2.12709e-05, Final residual = 2.06907e-06, No Iterations 210
time step continuity errors : sum local = 3.10641e-10, global = 1.65012e-11, cumulative = -4.84321e-08
DICPCG:  Solving for p, Initial residual = 3.71692e-05, Final residual = 2.39361e-06, No Iterations 2
DICPCG:  Solving for p, Initial residual = 2.82491e-06, Final residual = 9.85826e-07, No Iterations 69
time step continuity errors : sum local = 1.47996e-10, global = 1.45818e-11, cumulative = -4.84176e-08
ExecutionTime = 692 s  ClockTime = 694 s

Time = 0.00028

Courant Number mean: 0.00648306 max: 1.00791

 timeStepFraction() = 0.28

Solver level total Eulerian momentum exchange:
  TotalForceImp:  (-0.339849 -0.0224395 -0.779373)
  Warning, these values are based on latest Ksl and Us but prev. iteration U!

DILUPBiCG:  Solving for Ux, Initial residual = 0.00977855, Final residual = 5.52586e-06, No Iterations 1
DILUPBiCG:  Solving for Uy, Initial residual = 0.0202246, Final residual = 9.04381e-06, No Iterations 1
DILUPBiCG:  Solving for Uz, Initial residual = 0.00520059, Final residual = 2.52796e-06, No Iterations 1
DICPCG:  Solving for p, Initial residual = 0.0225006, Final residual = 0.00216098, No Iterations 20
DICPCG:  Solving for p, Initial residual = 0.00345489, Final residual = 0.000323006, No Iterations 50
time step continuity errors : sum local = 4.96344e-08, global = 1.01294e-10, cumulative = -4.83163e-08
DICPCG:  Solving for p, Initial residual = 0.00136478, Final residual = 0.00013542, No Iterations 14
DICPCG:  Solving for p, Initial residual = 0.000211388, Final residual = 2.09919e-05, No Iterations 172
time step continuity errors : sum local = 3.22885e-09, global = 1.11307e-10, cumulative = -4.8205e-08
DICPCG:  Solving for p, Initial residual = 0.000215184, Final residual = 1.9467e-05, No Iterations 2
DICPCG:  Solving for p, Initial residual = 2.16972e-05, Final residual = 2.16372e-06, No Iterations 157
time step continuity errors : sum local = 3.32814e-10, global = -2.27657e-11, cumulative = -4.82277e-08
DICPCG:  Solving for p, Initial residual = 3.50153e-05, Final residual = 2.5244e-06, No Iterations 2
DICPCG:  Solving for p, Initial residual = 2.93583e-06, Final residual = 9.56728e-07, No Iterations 315
time step continuity errors : sum local = 1.47154e-10, global = -2.19344e-12, cumulative = -4.82299e-08
ExecutionTime = 715.49 s  ClockTime = 718 s

Time = 0.00029

Courant Number mean: 0.00651218 max: 1.05357

 timeStepFraction() = 0.29

Solver level total Eulerian momentum exchange:
  TotalForceImp:  (-0.35127 -0.023146 -0.806099)
  Warning, these values are based on latest Ksl and Us but prev. iteration U!

DILUPBiCG:  Solving for Ux, Initial residual = 0.00986859, Final residual = 5.90011e-06, No Iterations 1
DILUPBiCG:  Solving for Uy, Initial residual = 0.0200568, Final residual = 9.52201e-06, No Iterations 1
DILUPBiCG:  Solving for Uz, Initial residual = 0.00527898, Final residual = 2.68641e-06, No Iterations 1
DICPCG:  Solving for p, Initial residual = 0.0217941, Final residual = 0.00214086, No Iterations 20
DICPCG:  Solving for p, Initial residual = 0.00339412, Final residual = 0.000327167, No Iterations 50
time step continuity errors : sum local = 5.14844e-08, global = 6.10131e-11, cumulative = -4.81689e-08
DICPCG:  Solving for p, Initial residual = 0.00136553, Final residual = 0.000136034, No Iterations 26
DICPCG:  Solving for p, Initial residual = 0.000255353, Final residual = 2.52526e-05, No Iterations 152
time step continuity errors : sum local = 3.97784e-09, global = 8.01498e-11, cumulative = -4.80888e-08
DICPCG:  Solving for p, Initial residual = 0.000215618, Final residual = 2.09493e-05, No Iterations 2
DICPCG:  Solving for p, Initial residual = 2.30791e-05, Final residual = 2.28169e-06, No Iterations 373
time step continuity errors : sum local = 3.59432e-10, global = 5.13985e-13, cumulative = -4.80882e-08
DICPCG:  Solving for p, Initial residual = 4.7517e-05, Final residual = 2.26065e-06, No Iterations 2
DICPCG:  Solving for p, Initial residual = 2.875e-06, Final residual = 9.98453e-07, No Iterations 46
time step continuity errors : sum local = 1.57355e-10, global = -2.69877e-12, cumulative = -4.80909e-08
ExecutionTime = 736.88 s  ClockTime = 739 s

Time = 0.0003

Courant Number mean: 0.0065426 max: 1.09854

 timeStepFraction() = 0.3

Solver level total Eulerian momentum exchange:
  TotalForceImp:  (-0.362441 -0.0238201 -0.833038)
  Warning, these values are based on latest Ksl and Us but prev. iteration U!

DILUPBiCG:  Solving for Ux, Initial residual = 0.00994763, Final residual = 6.25931e-06, No Iterations 1
DILUPBiCG:  Solving for Uy, Initial residual = 0.0198699, Final residual = 3.41107e-08, No Iterations 2
DILUPBiCG:  Solving for Uz, Initial residual = 0.00535349, Final residual = 2.86986e-06, No Iterations 1
DICPCG:  Solving for p, Initial residual = 0.0214167, Final residual = 0.00201649, No Iterations 20
DICPCG:  Solving for p, Initial residual = 0.00330544, Final residual = 0.000326177, No Iterations 49
time step continuity errors : sum local = 5.25548e-08, global = 7.13027e-11, cumulative = -4.80196e-08
DICPCG:  Solving for p, Initial residual = 0.0012533, Final residual = 0.000124193, No Iterations 15
DICPCG:  Solving for p, Initial residual = 0.00019906, Final residual = 1.96212e-05, No Iterations 148
time step continuity errors : sum local = 3.16434e-09, global = 8.16126e-11, cumulative = -4.7938e-08
DICPCG:  Solving for p, Initial residual = 0.000181662, Final residual = 1.71564e-05, No Iterations 2
DICPCG:  Solving for p, Initial residual = 1.91205e-05, Final residual = 1.88707e-06, No Iterations 212
time step continuity errors : sum local = 3.04336e-10, global = -1.92515e-11, cumulative = -4.79573e-08
DICPCG:  Solving for p, Initial residual = 3.5212e-05, Final residual = 2.16975e-06, No Iterations 2
DICPCG:  Solving for p, Initial residual = 2.60121e-06, Final residual = 9.83562e-07, No Iterations 282
time step continuity errors : sum local = 1.5862e-10, global = -6.37199e-12, cumulative = -4.79636e-08
ExecutionTime = 759.38 s  ClockTime = 762 s

Time = 0.00031

Courant Number mean: 0.00657429 max: 1.14297

 timeStepFraction() = 0.31

Solver level total Eulerian momentum exchange:
  TotalForceImp:  (-0.373386 -0.0244426 -0.860171)
  Warning, these values are based on latest Ksl and Us but prev. iteration U!

DILUPBiCG:  Solving for Ux, Initial residual = 0.00999412, Final residual = 6.6139e-06, No Iterations 1
DILUPBiCG:  Solving for Uy, Initial residual = 0.0196651, Final residual = 3.34636e-08, No Iterations 2
DILUPBiCG:  Solving for Uz, Initial residual = 0.00541517, Final residual = 3.03189e-06, No Iterations 1
DICPCG:  Solving for p, Initial residual = 0.0208059, Final residual = 0.00202114, No Iterations 20
DICPCG:  Solving for p, Initial residual = 0.00324633, Final residual = 0.00029908, No Iterations 50
time step continuity errors : sum local = 4.92871e-08, global = 5.66021e-11, cumulative = -4.7907e-08
DICPCG:  Solving for p, Initial residual = 0.00126549, Final residual = 0.000123977, No Iterations 14
DICPCG:  Solving for p, Initial residual = 0.000196817, Final residual = 1.92569e-05, No Iterations 194
time step continuity errors : sum local = 3.17647e-09, global = 6.61814e-11, cumulative = -4.78409e-08
DICPCG:  Solving for p, Initial residual = 0.000209435, Final residual = 1.80947e-05, No Iterations 2
DICPCG:  Solving for p, Initial residual = 2.03433e-05, Final residual = 2.01561e-06, No Iterations 375
time step continuity errors : sum local = 3.3249e-10, global = -2.08866e-12, cumulative = -4.7843e-08
DICPCG:  Solving for p, Initial residual = 3.25744e-05, Final residual = 1.91159e-06, No Iterations 2
DICPCG:  Solving for p, Initial residual = 2.32294e-06, Final residual = 9.8237e-07, No Iterations 11
time step continuity errors : sum local = 1.62102e-10, global = -1.338e-12, cumulative = -4.78443e-08
ExecutionTime = 780.22 s  ClockTime = 782 s

Time = 0.00032

Courant Number mean: 0.0066072 max: 1.18709

 timeStepFraction() = 0.32

Solver level total Eulerian momentum exchange:
  TotalForceImp:  (-0.384117 -0.0250687 -0.887525)
  Warning, these values are based on latest Ksl and Us but prev. iteration U!

DILUPBiCG:  Solving for Ux, Initial residual = 0.0100286, Final residual = 6.96461e-06, No Iterations 1
DILUPBiCG:  Solving for Uy, Initial residual = 0.0194417, Final residual = 3.39373e-08, No Iterations 2
DILUPBiCG:  Solving for Uz, Initial residual = 0.00547821, Final residual = 3.2201e-06, No Iterations 1
DICPCG:  Solving for p, Initial residual = 0.0203999, Final residual = 0.00192151, No Iterations 20
DICPCG:  Solving for p, Initial residual = 0.00315441, Final residual = 0.000315109, No Iterations 48
time step continuity errors : sum local = 5.30924e-08, global = 6.85388e-11, cumulative = -4.77758e-08
DICPCG:  Solving for p, Initial residual = 0.00118804, Final residual = 0.000117941, No Iterations 15
DICPCG:  Solving for p, Initial residual = 0.00019264, Final residual = 1.87737e-05, No Iterations 140
time step continuity errors : sum local = 3.1659e-09, global = 7.64502e-11, cumulative = -4.76993e-08
DICPCG:  Solving for p, Initial residual = 0.000162617, Final residual = 1.40821e-05, No Iterations 3
DICPCG:  Solving for p, Initial residual = 1.54059e-05, Final residual = 1.48556e-06, No Iterations 224
time step continuity errors : sum local = 2.50523e-10, global = -1.26724e-12, cumulative = -4.77006e-08
DICPCG:  Solving for p, Initial residual = 3.01948e-05, Final residual = 1.68884e-06, No Iterations 2
DICPCG:  Solving for p, Initial residual = 2.06233e-06, Final residual = 9.90507e-07, No Iterations 9
time step continuity errors : sum local = 1.67032e-10, global = -1.28944e-14, cumulative = -4.77006e-08
ExecutionTime = 795.89 s  ClockTime = 798 s

Time = 0.00033

Courant Number mean: 0.00664124 max: 1.23102

 timeStepFraction() = 0.33

Solver level total Eulerian momentum exchange:
  TotalForceImp:  (-0.394652 -0.025653 -0.915069)
  Warning, these values are based on latest Ksl and Us but prev. iteration U!

DILUPBiCG:  Solving for Ux, Initial residual = 0.0100365, Final residual = 7.27646e-06, No Iterations 1
DILUPBiCG:  Solving for Uy, Initial residual = 0.0192038, Final residual = 3.26764e-08, No Iterations 2
DILUPBiCG:  Solving for Uz, Initial residual = 0.00553631, Final residual = 3.39695e-06, No Iterations 1
DICPCG:  Solving for p, Initial residual = 0.0198104, Final residual = 0.00195901, No Iterations 20
DICPCG:  Solving for p, Initial residual = 0.00311493, Final residual = 0.000286969, No Iterations 50
time step continuity errors : sum local = 4.93743e-08, global = 6.07159e-11, cumulative = -4.76399e-08
DICPCG:  Solving for p, Initial residual = 0.00124246, Final residual = 0.000121587, No Iterations 13
DICPCG:  Solving for p, Initial residual = 0.00018992, Final residual = 1.89442e-05, No Iterations 195
time step continuity errors : sum local = 3.26244e-09, global = 6.1371e-11, cumulative = -4.75785e-08
DICPCG:  Solving for p, Initial residual = 0.000200406, Final residual = 1.80073e-05, No Iterations 2
DICPCG:  Solving for p, Initial residual = 2.01078e-05, Final residual = 1.95584e-06, No Iterations 374
time step continuity errors : sum local = 3.36835e-10, global = -1.99407e-12, cumulative = -4.75805e-08
DICPCG:  Solving for p, Initial residual = 3.23234e-05, Final residual = 1.86702e-06, No Iterations 2
DICPCG:  Solving for p, Initial residual = 2.27987e-06, Final residual = 9.68303e-07, No Iterations 9
time step continuity errors : sum local = 1.66817e-10, global = -3.58233e-13, cumulative = -4.75808e-08
ExecutionTime = 817.58 s  ClockTime = 820 s

Time = 0.00034

Courant Number mean: 0.0066765 max: 1.27471

 timeStepFraction() = 0.34

Solver level total Eulerian momentum exchange:
  TotalForceImp:  (-0.404988 -0.0262296 -0.942847)
  Warning, these values are based on latest Ksl and Us but prev. iteration U!

DILUPBiCG:  Solving for Ux, Initial residual = 0.0100359, Final residual = 7.60179e-06, No Iterations 1
DILUPBiCG:  Solving for Uy, Initial residual = 0.018937, Final residual = 3.32974e-08, No Iterations 2
DILUPBiCG:  Solving for Uz, Initial residual = 0.00559343, Final residual = 3.61709e-06, No Iterations 1
DICPCG:  Solving for p, Initial residual = 0.0193662, Final residual = 0.00185756, No Iterations 20
DICPCG:  Solving for p, Initial residual = 0.00306459, Final residual = 0.000302526, No Iterations 49
time step continuity errors : sum local = 5.31288e-08, global = 5.3997e-11, cumulative = -4.75268e-08
DICPCG:  Solving for p, Initial residual = 0.00116269, Final residual = 0.000113222, No Iterations 14
DICPCG:  Solving for p, Initial residual = 0.000182127, Final residual = 1.78134e-05, No Iterations 153
time step continuity errors : sum local = 3.13101e-09, global = 6.53748e-11, cumulative = -4.74615e-08
DICPCG:  Solving for p, Initial residual = 0.000175872, Final residual = 1.67256e-05, No Iterations 2
DICPCG:  Solving for p, Initial residual = 1.85968e-05, Final residual = 1.79453e-06, No Iterations 213
time step continuity errors : sum local = 3.15429e-10, global = -4.0517e-11, cumulative = -4.7502e-08
DICPCG:  Solving for p, Initial residual = 3.3642e-05, Final residual = 2.01798e-06, No Iterations 2
DICPCG:  Solving for p, Initial residual = 2.44873e-06, Final residual = 9.55591e-07, No Iterations 275
time step continuity errors : sum local = 1.67967e-10, global = -4.28687e-12, cumulative = -4.75063e-08
ExecutionTime = 840.66 s  ClockTime = 843 s

Time = 0.00035

Courant Number mean: 0.00671285 max: 1.31765

 timeStepFraction() = 0.35

Solver level total Eulerian momentum exchange:
  TotalForceImp:  (-0.415157 -0.0267803 -0.970834)
  Warning, these values are based on latest Ksl and Us but prev. iteration U!

DILUPBiCG:  Solving for Ux, Initial residual = 0.010028, Final residual = 7.95233e-06, No Iterations 1
DILUPBiCG:  Solving for Uy, Initial residual = 0.0186561, Final residual = 3.76687e-08, No Iterations 2
DILUPBiCG:  Solving for Uz, Initial residual = 0.00564308, Final residual = 3.82212e-06, No Iterations 1
DICPCG:  Solving for p, Initial residual = 0.0189755, Final residual = 0.00186342, No Iterations 20
DICPCG:  Solving for p, Initial residual = 0.00300203, Final residual = 0.000284316, No Iterations 50
time step continuity errors : sum local = 5.09424e-08, global = 3.88463e-11, cumulative = -4.74674e-08
DICPCG:  Solving for p, Initial residual = 0.00120347, Final residual = 0.00011464, No Iterations 13
DICPCG:  Solving for p, Initial residual = 0.000182248, Final residual = 1.8081e-05, No Iterations 197
time step continuity errors : sum local = 3.24259e-09, global = 4.03581e-11, cumulative = -4.74271e-08
DICPCG:  Solving for p, Initial residual = 0.000206711, Final residual = 1.83496e-05, No Iterations 2
DICPCG:  Solving for p, Initial residual = 2.05064e-05, Final residual = 1.99916e-06, No Iterations 378
time step continuity errors : sum local = 3.58544e-10, global = -2.78109e-12, cumulative = -4.74299e-08
DICPCG:  Solving for p, Initial residual = 3.71271e-05, Final residual = 2.02193e-06, No Iterations 2
DICPCG:  Solving for p, Initial residual = 2.49629e-06, Final residual = 9.87661e-07, No Iterations 5
time step continuity errors : sum local = 1.77221e-10, global = -2.38122e-12, cumulative = -4.74322e-08
ExecutionTime = 862.32 s  ClockTime = 865 s

Time = 0.00036

Courant Number mean: 0.00675033 max: 1.36029

 timeStepFraction() = 0.36

Solver level total Eulerian momentum exchange:
  TotalForceImp:  (-0.42518 -0.027328 -0.999075)
  Warning, these values are based on latest Ksl and Us but prev. iteration U!

DILUPBiCG:  Solving for Ux, Initial residual = 0.0100108, Final residual = 8.2867e-06, No Iterations 1
DILUPBiCG:  Solving for Uy, Initial residual = 0.0183722, Final residual = 4.93877e-08, No Iterations 2
DILUPBiCG:  Solving for Uz, Initial residual = 0.00568976, Final residual = 4.06275e-06, No Iterations 1
DICPCG:  Solving for p, Initial residual = 0.0186361, Final residual = 0.0018151, No Iterations 20
DICPCG:  Solving for p, Initial residual = 0.00295529, Final residual = 0.0002665, No Iterations 50
time step continuity errors : sum local = 4.87187e-08, global = 5.18476e-11, cumulative = -4.73804e-08
DICPCG:  Solving for p, Initial residual = 0.00114505, Final residual = 0.000106492, No Iterations 13
DICPCG:  Solving for p, Initial residual = 0.000172343, Final residual = 1.69099e-05, No Iterations 196
time step continuity errors : sum local = 3.09397e-09, global = 4.38851e-11, cumulative = -4.73365e-08
DICPCG:  Solving for p, Initial residual = 0.000187255, Final residual = 1.71973e-05, No Iterations 2
DICPCG:  Solving for p, Initial residual = 1.91889e-05, Final residual = 1.87612e-06, No Iterations 374
time step continuity errors : sum local = 3.43288e-10, global = -2.34782e-12, cumulative = -4.73389e-08
DICPCG:  Solving for p, Initial residual = 3.28482e-05, Final residual = 1.93927e-06, No Iterations 2
DICPCG:  Solving for p, Initial residual = 2.36825e-06, Final residual = 8.83303e-07, No Iterations 5
time step continuity errors : sum local = 1.6169e-10, global = -3.11598e-12, cumulative = -4.7342e-08
ExecutionTime = 884.1 s  ClockTime = 887 s

Time = 0.00037

Courant Number mean: 0.0067889 max: 1.40252

 timeStepFraction() = 0.37

Solver level total Eulerian momentum exchange:
  TotalForceImp:  (-0.435076 -0.0278275 -1.02752)
  Warning, these values are based on latest Ksl and Us but prev. iteration U!

DILUPBiCG:  Solving for Ux, Initial residual = 0.00998012, Final residual = 8.61101e-06, No Iterations 1
DILUPBiCG:  Solving for Uy, Initial residual = 0.018087, Final residual = 7.56013e-08, No Iterations 2
[...]
DILUPBiCG:  Solving for Uy, Initial residual = 0.0354459, Final residual = 7.74804e-06, No Iterations 8
DILUPBiCG:  Solving for Uz, Initial residual = 0.0535802, Final residual = 6.66767e-06, No Iterations 9
DICPCG:  Solving for p, Initial residual = 0.191578, Final residual = 0.019006, No Iterations 14
DICPCG:  Solving for p, Initial residual = 0.0544124, Final residual = 0.00539295, No Iterations 19
time step continuity errors : sum local = 2.66251e-05, global = -2.66336e-08, cumulative = -9.1106e-08
DICPCG:  Solving for p, Initial residual = 0.084695, Final residual = 0.00840637, No Iterations 12
DICPCG:  Solving for p, Initial residual = 0.0183185, Final residual = 0.00177798, No Iterations 20
time step continuity errors : sum local = 9.22193e-06, global = -2.65323e-08, cumulative = -1.17638e-07
DICPCG:  Solving for p, Initial residual = 0.0408439, Final residual = 0.00349162, No Iterations 4
DICPCG:  Solving for p, Initial residual = 0.00494621, Final residual = 0.000491289, No Iterations 42
time step continuity errors : sum local = 2.56926e-06, global = -2.64196e-08, cumulative = -1.44058e-07
DICPCG:  Solving for p, Initial residual = 0.0231108, Final residual = 0.00162972, No Iterations 3
DICPCG:  Solving for p, Initial residual = 0.00248024, Final residual = 9.72132e-07, No Iterations 400
time step continuity errors : sum local = 5.07395e-09, global = 1.33532e-09, cumulative = -1.42723e-07
ExecutionTime = 12279.3 s  ClockTime = 12314 s

Time = 0.00697

Courant Number mean: 0.0185029 max: 159.711

 timeStepFraction() = 0.97

Solver level total Eulerian momentum exchange:
  TotalForceImp:  (-0.0426469 0.784165 3.25634)
  Warning, these values are based on latest Ksl and Us but prev. iteration U!

DILUPBiCG:  Solving for Ux, Initial residual = 0.253975, Final residual = 6.90648e-06, No Iterations 13
DILUPBiCG:  Solving for Uy, Initial residual = 0.190428, Final residual = 3.17675e-06, No Iterations 15
DILUPBiCG:  Solving for Uz, Initial residual = 0.281486, Final residual = 7.37728e-06, No Iterations 13
DICPCG:  Solving for p, Initial residual = 0.179688, Final residual = 0.0170046, No Iterations 16
DICPCG:  Solving for p, Initial residual = 0.0491237, Final residual = 0.00472189, No Iterations 18
time step continuity errors : sum local = 2.15271e-05, global = 2.61274e-08, cumulative = -1.16595e-07
DICPCG:  Solving for p, Initial residual = 0.0864688, Final residual = 0.00819992, No Iterations 12
DICPCG:  Solving for p, Initial residual = 0.0184241, Final residual = 0.00181315, No Iterations 21
time step continuity errors : sum local = 7.87198e-06, global = 2.59699e-08, cumulative = -9.06252e-08
DICPCG:  Solving for p, Initial residual = 0.0467599, Final residual = 0.00375562, No Iterations 3
DICPCG:  Solving for p, Initial residual = 0.00570509, Final residual = 0.000557807, No Iterations 49
time step continuity errors : sum local = 2.42127e-06, global = 2.57943e-08, cumulative = -6.48309e-08
DICPCG:  Solving for p, Initial residual = 0.0382346, Final residual = 0.00371604, No Iterations 2
DICPCG:  Solving for p, Initial residual = 0.00547159, Final residual = 9.51578e-07, No Iterations 377
time step continuity errors : sum local = 4.13269e-09, global = -1.8924e-10, cumulative = -6.50202e-08
ExecutionTime = 12298.8 s  ClockTime = 12333 s

Time = 0.00698

Courant Number mean: 0.0172877 max: 91.777

 timeStepFraction() = 0.98

Solver level total Eulerian momentum exchange:
  TotalForceImp:  (0.855463 0.359196 2.73768)
  Warning, these values are based on latest Ksl and Us but prev. iteration U!

DILUPBiCG:  Solving for Ux, Initial residual = 0.0400776, Final residual = 7.99018e-06, No Iterations 6
DILUPBiCG:  Solving for Uy, Initial residual = 0.0404981, Final residual = 5.429e-06, No Iterations 7
DILUPBiCG:  Solving for Uz, Initial residual = 0.0414586, Final residual = 8.19426e-06, No Iterations 6
DICPCG:  Solving for p, Initial residual = 0.217563, Final residual = 0.0214958, No Iterations 17
DICPCG:  Solving for p, Initial residual = 0.0680677, Final residual = 0.00644252, No Iterations 19
time step continuity errors : sum local = 3.36696e-05, global = -2.50612e-08, cumulative = -9.00814e-08
DICPCG:  Solving for p, Initial residual = 0.0948337, Final residual = 0.00866113, No Iterations 13
DICPCG:  Solving for p, Initial residual = 0.0208131, Final residual = 0.00201509, No Iterations 21
time step continuity errors : sum local = 1.11146e-05, global = -2.49372e-08, cumulative = -1.15019e-07
DICPCG:  Solving for p, Initial residual = 0.0354636, Final residual = 0.00352865, No Iterations 3
DICPCG:  Solving for p, Initial residual = 0.00491474, Final residual = 0.000485194, No Iterations 66
time step continuity errors : sum local = 2.66331e-06, global = -2.47251e-08, cumulative = -1.39744e-07
DICPCG:  Solving for p, Initial residual = 0.0186957, Final residual = 0.00169139, No Iterations 3
DICPCG:  Solving for p, Initial residual = 0.00238816, Final residual = 9.67073e-07, No Iterations 473
time step continuity errors : sum local = 5.28699e-09, global = -8.74354e-12, cumulative = -1.39752e-07
ExecutionTime = 12319.3 s  ClockTime = 12354 s

Time = 0.00699

Courant Number mean: 0.0191604 max: 200.316

 timeStepFraction() = 0.99

Solver level total Eulerian momentum exchange:
  TotalForceImp:  (0.234033 0.912218 3.65064)
  Warning, these values are based on latest Ksl and Us but prev. iteration U!

DILUPBiCG:  Solving for Ux, Initial residual = 0.284129, Final residual = 5.4803e-06, No Iterations 15
DILUPBiCG:  Solving for Uy, Initial residual = 0.283033, Final residual = 9.07803e-06, No Iterations 15
DILUPBiCG:  Solving for Uz, Initial residual = 0.393352, Final residual = 6.74107e-06, No Iterations 17
DICPCG:  Solving for p, Initial residual = 0.202679, Final residual = 0.0202314, No Iterations 17
DICPCG:  Solving for p, Initial residual = 0.0584407, Final residual = 0.00562808, No Iterations 18
time step continuity errors : sum local = 2.70911e-05, global = 1.97941e-08, cumulative = -1.19958e-07
DICPCG:  Solving for p, Initial residual = 0.107736, Final residual = 0.0104544, No Iterations 13
DICPCG:  Solving for p, Initial residual = 0.0231312, Final residual = 0.00230396, No Iterations 18
time step continuity errors : sum local = 1.05343e-05, global = 1.96705e-08, cumulative = -1.00288e-07
DICPCG:  Solving for p, Initial residual = 0.0650121, Final residual = 0.00547166, No Iterations 3
DICPCG:  Solving for p, Initial residual = 0.00868179, Final residual = 0.000866152, No Iterations 47
time step continuity errors : sum local = 3.97983e-06, global = 1.95528e-08, cumulative = -8.07351e-08
DICPCG:  Solving for p, Initial residual = 0.0619424, Final residual = 0.00509726, No Iterations 3
DICPCG:  Solving for p, Initial residual = 0.00786423, Final residual = 9.85104e-07, No Iterations 492
time step continuity errors : sum local = 4.57495e-09, global = -8.23037e-12, cumulative = -8.07433e-08
ExecutionTime = 12341.7 s  ClockTime = 12376 s

Time = 0.007

Courant Number mean: 0.0176548 max: 102.756

 timeStepFraction() = 1

Solver level total Eulerian momentum exchange:
  TotalForceImp:  (0.968965 0.219482 2.74941)
  Warning, these values are based on latest Ksl and Us but prev. iteration U!

DILUPBiCG:  Solving for Ux, Initial residual = 0.0813191, Final residual = 5.17251e-06, No Iterations 10
DILUPBiCG:  Solving for Uy, Initial residual = 0.0733818, Final residual = 8.42969e-06, No Iterations 9
DILUPBiCG:  Solving for Uz, Initial residual = 0.0911486, Final residual = 3.01387e-06, No Iterations 10
DICPCG:  Solving for p, Initial residual = 0.289672, Final residual = 0.0267702, No Iterations 18
DICPCG:  Solving for p, Initial residual = 0.0822091, Final residual = 0.00785545, No Iterations 20
time step continuity errors : sum local = 4.54155e-05, global = -1.82257e-08, cumulative = -9.8969e-08
DICPCG:  Solving for p, Initial residual = 0.109818, Final residual = 0.0104954, No Iterations 14
DICPCG:  Solving for p, Initial residual = 0.0233646, Final residual = 0.00223436, No Iterations 24
time step continuity errors : sum local = 1.35164e-05, global = -1.81441e-08, cumulative = -1.17113e-07
DICPCG:  Solving for p, Initial residual = 0.0419214, Final residual = 0.00417391, No Iterations 3
DICPCG:  Solving for p, Initial residual = 0.0058333, Final residual = 0.000559496, No Iterations 73
time step continuity errors : sum local = 3.37296e-06, global = -1.79899e-08, cumulative = -1.35103e-07
DICPCG:  Solving for p, Initial residual = 0.023548, Final residual = 0.00234444, No Iterations 3
DICPCG:  Solving for p, Initial residual = 0.00313829, Final residual = 9.27811e-07, No Iterations 483
time step continuity errors : sum local = 5.57965e-09, global = -1.76768e-11, cumulative = -1.35121e-07
ExecutionTime = 12365.9 s  ClockTime = 12401 s

Time = 0.00701

Courant Number mean: 0.0201529 max: 338.422

 Coupling...
Starting up LIGGGHTS
Executing command: 'run 100    '
Setting up run at Mon Jul 27 04:30:59 2020

Memory usage per processor = 24.2125 Mbytes
    Step    Atoms         KinEng            rke         Volume       centerOf       dragtota       dragtota       dragtota 
  350700    15337     0.16968647    0.010305259         0.0051   0.0061706318     -561.52728      3.0045594     -91.721774 
CFD Coupling established at step 350800
  350800    15293      0.2097214    0.014635694         0.0051   0.0079161248     0.84710411    -0.11527718     0.55579204 
Loop time of 1.6074 on 4 procs for 100 steps with 15293 atoms, finish time Mon Jul 27 04:31:00 2020


Pair  time (%) = 0.104635 (6.50956)
Neigh time (%) = 0.746781 (46.4588)
Comm  time (%) = 0.135326 (8.41893)
Outpt time (%) = 0.000317514 (0.0197532)
Other time (%) = 0.620344 (38.5929)

Nlocal:    3823.25 ave 3981 max 3570 min
Histogram: 1 0 0 0 0 1 0 0 0 2
Nghost:    749.75 ave 773 max 720 min
Histogram: 1 0 0 0 1 0 0 0 1 1
Neighs:    14922 ave 17452 max 12972 min
Histogram: 1 0 0 1 1 0 0 0 0 1

Total # of neighbors = 59688
Ave neighs/atom = 3.90296
Neighbor list builds = 100
Dangerous builds = 100
Executing command: 'write_restart ../DEM/post/restart/liggghts.restartCFDEM'
System init for write_restart ...
LIGGGHTS finished

 timeStepFraction() = 0.01

Solver level total Eulerian momentum exchange:
  TotalForceImp:  (-5.69973 -0.255379 12.3638)
  Warning, these values are based on latest Ksl and Us but prev. iteration U!

DILUPBiCG:  Solving for Ux, Initial residual = 0.318184, Final residual = 3.17126e-06, No Iterations 17
DILUPBiCG:  Solving for Uy, Initial residual = 0.387445, Final residual = 2.25383e-06, No Iterations 18
DILUPBiCG:  Solving for Uz, Initial residual = 0.472888, Final residual = 6.30219e-06, No Iterations 17
DICPCG:  Solving for p, Initial residual = 0.251834, Final residual = 0.024708, No Iterations 17
DICPCG:  Solving for p, Initial residual = 0.067856, Final residual = 0.00643092, No Iterations 18
time step continuity errors : sum local = 3.30805e-05, global = -2.18986e-10, cumulative = -1.3534e-07
DICPCG:  Solving for p, Initial residual = 0.136284, Final residual = 0.0134038, No Iterations 12
DICPCG:  Solving for p, Initial residual = 0.0287842, Final residual = 0.00282677, No Iterations 21
time step continuity errors : sum local = 1.36993e-05, global = -3.18231e-10, cumulative = -1.35658e-07
DICPCG:  Solving for p, Initial residual = 0.0852673, Final residual = 0.00779555, No Iterations 3
DICPCG:  Solving for p, Initial residual = 0.0111146, Final residual = 0.00107965, No Iterations 47
time step continuity errors : sum local = 5.23152e-06, global = -4.05796e-10, cumulative = -1.36064e-07
DICPCG:  Solving for p, Initial residual = 0.0831058, Final residual = 0.00627846, No Iterations 3
DICPCG:  Solving for p, Initial residual = 0.0100471, Final residual = 9.55977e-07, No Iterations 492
time step continuity errors : sum local = 4.68005e-09, global = -8.05132e-12, cumulative = -1.36072e-07
ExecutionTime = 12392 s  ClockTime = 12427 s

Time = 0.00702

Courant Number mean: 0.0180779 max: 228.915

 timeStepFraction() = 0.02

Solver level total Eulerian momentum exchange:
  TotalForceImp:  (0.680108 0.100253 1.49503)
  Warning, these values are based on latest Ksl and Us but prev. iteration U!

DILUPBiCG:  Solving for Ux, Initial residual = 0.0997574, Final residual = 1.50695e-06, No Iterations 13
DILUPBiCG:  Solving for Uy, Initial residual = 0.0882114, Final residual = 9.4777e-06, No Iterations 12
DILUPBiCG:  Solving for Uz, Initial residual = 0.105101, Final residual = 8.16337e-06, No Iterations 11
DICPCG:  Solving for p, Initial residual = 0.26078, Final residual = 0.0259492, No Iterations 18
DICPCG:  Solving for p, Initial residual = 0.0818526, Final residual = 0.00801384, No Iterations 19
time step continuity errors : sum local = 4.26377e-05, global = 1.04176e-10, cumulative = -1.35968e-07
DICPCG:  Solving for p, Initial residual = 0.106921, Final residual = 0.00979686, No Iterations 12
DICPCG:  Solving for p, Initial residual = 0.0201395, Final residual = 0.00193333, No Iterations 40
time step continuity errors : sum local = 1.04603e-05, global = 1.08558e-10, cumulative = -1.35859e-07
DICPCG:  Solving for p, Initial residual = 0.0405408, Final residual = 0.00376134, No Iterations 5
DICPCG:  Solving for p, Initial residual = 0.00531673, Final residual = 0.000510331, No Iterations 64
time step continuity errors : sum local = 2.75437e-06, global = 1.45347e-10, cumulative = -1.35714e-07
DICPCG:  Solving for p, Initial residual = 0.0225468, Final residual = 0.0019005, No Iterations 5
DICPCG:  Solving for p, Initial residual = 0.00281294, Final residual = 9.36213e-07, No Iterations 474
time step continuity errors : sum local = 5.03643e-09, global = -1.68834e-12, cumulative = -1.35715e-07
ExecutionTime = 12414.5 s  ClockTime = 12449 s

Time = 0.00703

Courant Number mean: 0.0196229 max: 208.254

 timeStepFraction() = 0.03

Solver level total Eulerian momentum exchange:
  TotalForceImp:  (-0.0928713 0.879368 3.64237)
  Warning, these values are based on latest Ksl and Us but prev. iteration U!

DILUPBiCG:  Solving for Ux, Initial residual = 0.159498, Final residual = 6.39326e-06, No Iterations 13
DILUPBiCG:  Solving for Uy, Initial residual = 0.285924, Final residual = 8.33141e-06, No Iterations 16
DILUPBiCG:  Solving for Uz, Initial residual = 0.214937, Final residual = 1.1216e-06, No Iterations 16
DICPCG:  Solving for p, Initial residual = 0.259916, Final residual = 0.0249688, No Iterations 19
DICPCG:  Solving for p, Initial residual = 0.0611286, Final residual = 0.00602995, No Iterations 17
time step continuity errors : sum local = 3.69013e-05, global = 7.05849e-09, cumulative = -1.28657e-07
DICPCG:  Solving for p, Initial residual = 0.618308, Final residual = 0.0472045, No Iterations 1
DICPCG:  Solving for p, Initial residual = 0.0362972, Final residual = 0.0034427, No Iterations 23
time step continuity errors : sum local = 5.65306e-05, global = 7.0608e-09, cumulative = -1.21596e-07
DICPCG:  Solving for p, Initial residual = 0.937962, Final residual = 0.04459, No Iterations 1
DICPCG:  Solving for p, Initial residual = 0.0339592, Final residual = 0.00242878, No Iterations 2
time step continuity errors : sum local = 0.00113124, global = 7.06127e-09, cumulative = -1.14535e-07
DICPCG:  Solving for p, Initial residual = 0.997505, Final residual = 0.0414404, No Iterations 1
DICPCG:  Solving for p, Initial residual = 0.0268376, Final residual = 9.26245e-07, No Iterations 522
time step continuity errors : sum local = 9.9377e-06, global = -1.4862e-08, cumulative = -1.29397e-07
ExecutionTime = 12436.7 s  ClockTime = 12472 s

Time = 0.00704

Courant Number mean: 0.322264 max: 602935

 timeStepFraction() = 0.04

Solver level total Eulerian momentum exchange:
  TotalForceImp:  (-58.4647 501.204 187.17)
  Warning, these values are based on latest Ksl and Us but prev. iteration U!

DILUPBiCG:  Solving for Ux, Initial residual = 0.999933, Final residual = 7.64189e-06, No Iterations 135
DILUPBiCG:  Solving for Uy, Initial residual = 0.999946, Final residual = 6.44968e-06, No Iterations 136
DILUPBiCG:  Solving for Uz, Initial residual = 0.999928, Final residual = 9.33897e-06, No Iterations 133
DICPCG:  Solving for p, Initial residual = 0.938539, Final residual = 0.082349, No Iterations 20
DICPCG:  Solving for p, Initial residual = 0.0994168, Final residual = 0.00941817, No Iterations 92
time step continuity errors : sum local = 0.0183293, global = -3.13567e-08, cumulative = -1.60753e-07
DICPCG:  Solving for p, Initial residual = 0.962878, Final residual = 0.0562575, No Iterations 4
DICPCG:  Solving for p, Initial residual = 0.132051, Final residual = 0.00776376, No Iterations 15
time step continuity errors : sum local = 0.436007, global = -2.83973e-08, cumulative = -1.89151e-07
DICPCG:  Solving for p, Initial residual = 0.993901, Final residual = 0.07464, No Iterations 5
DICPCG:  Solving for p, Initial residual = 0.194859, Final residual = 0.0192827, No Iterations 60
time step continuity errors : sum local = 28.2594, global = -3.42801e-08, cumulative = -2.23431e-07
DICPCG:  Solving for p, Initial residual = 0.99633, Final residual = 0.043837, No Iterations 4
DICPCG:  Solving for p, Initial residual = 0.132497, Final residual = 8.23962e-05, No Iterations 1001
time step continuity errors : sum local = 11.4731, global = 0.863314, cumulative = 0.863314
ExecutionTime = 12501 s  ClockTime = 12536 s

Time = 0.00705

Courant Number mean: 8004.01 max: 2.17276e+09

 timeStepFraction() = 0.05

Solver level total Eulerian momentum exchange:
  TotalForceImp:  (608039 -1.25929e+07 2.92467e+06)
  Warning, these values are based on latest Ksl and Us but prev. iteration U!

[0] 
[0] 
[0] --> FOAM FATAL ERROR: 
[0] PBiCG has failed to converge within the maximum number of iterations 1000
    Please try the more robust PBiCGStab solver.
[0] 
[0]     From function virtual Foam::solverPerformance Foam::PBiCG::solve(Foam::scalarField&, const scalarField&, Foam::direction) const
[0]     in file matrices/lduMatrix/solvers/PBiCG/PBiCG.C at line 214.
[0] 
FOAM parallel run exiting
[0] 
[1] 
[1] 
[1] --> FOAM FATAL ERROR: 
[1] PBiCG has failed to converge within the maximum number of iterations 1000
    Please try the more robust PBiCGStab solver.
[1] 
[1]     From function virtual Foam::solverPerformance Foam::PBiCG::solve(Foam::scalarField&, const scalarField&, Foam::direction) const
[1]     in file matrices/lduMatrix/solvers/PBiCG/PBiCG.C at line 214.
[1] 
FOAM parallel run exiting
[1] 
[2] 
[2] 
[2] --> FOAM FATAL ERROR: 
[2] PBiCG has failed to converge within the maximum number of iterations 1000
    Please try the more robust PBiCGStab solver.
[2] 
[2]     From function virtual Foam::solverPerformance Foam::PBiCG::solve(Foam::scalarField&, const scalarField&, Foam::direction) const
[2]     in file matrices/lduMatrix/solvers/PBiCG/PBiCG.C at line 214.
[2] 
FOAM parallel run exiting
[2] 
[3] 
[3] 
[3] --> FOAM FATAL ERROR: 
[3] PBiCG has failed to converge within the maximum number of iterations 1000
    Please try the more robust PBiCGStab solver.
[3] 
[3]     From function virtual Foam::solverPerformance Foam::PBiCG::solve(Foam::scalarField&, const scalarField&, Foam::direction) const
[3]     in file matrices/lduMatrix/solvers/PBiCG/PBiCG.C at line 214.
[3] 
FOAM parallel run exiting
[3] 
--------------------------------------------------------------------------
MPI_ABORT was invoked on rank 1 in communicator MPI_COMM_WORLD 
with errorcode 1.

NOTE: invoking MPI_ABORT causes Open MPI to kill all MPI processes.
You may or may not see output from other processes, depending on
exactly when Open MPI kills them.
--------------------------------------------------------------------------
[hwb-virtual-machine:93842] 3 more processes have sent help message help-mpi-api.txt / mpi-abort
[hwb-virtual-machine:93842] Set MCA parameter "orte_base_help_aggregate" to 0 to see all help / error messages
