/*---------------------------------------------------------------------------*\
| =========                 |                                                 |
| \\      /  F ield         | OpenFOAM: The Open Source CFD Toolbox           |
|  \\    /   O peration     | Version:  5.x                                   |
|   \\  /    A nd           | Web:      www.OpenFOAM.org                      |
|    \\/     M anipulation  |                                                 |
\*---------------------------------------------------------------------------*/
Build  : 5.x-197d9d3bf20a
Exec   : snappyHexMesh -overwrite
Date   : Jul 14 2020
Time   : 03:38:14
Host   : "hwb-virtual-machine"
PID    : 81839
I/O    : uncollated
Case   : /home/hwb/CFDEM/bubbling_fluidized_bed/fluidizedbedTest_restart/CFD
nProcs : 1
sigFpe : Enabling floating point exception trapping (FOAM_SIGFPE).
fileModificationChecking : Monitoring run-time modified files using timeStampMaster (fileModificationSkew 10)
allowSystemOperations : Allowing user-supplied system call operations

// * * * * * * * * * * * * * * * * * * * * * * * * * * * * * * * * * * * * * //
Create time

Create mesh for time = 0

Read mesh in = 0.07 s

Overall mesh bounding box  : (-1.2 -1.2 -0.2) (1.7 1.2 17.6)
Relative tolerance         : 1e-06
Absolute matching distance : 1.81937e-05

Reading refinement surfaces.
Read refinement surfaces in = 0 s

Reading refinement shells.
Read refinement shells in = 0 s

Setting refinement level of surface to be consistent with shells.
Checked shell refinement in = 0.01 s

Reading features.
Read features in = 0 s


Determining initial surface intersections
-----------------------------------------

Edge intersection testing:
    Number of edges             : 42525
    Number of edges to retest   : 42525
    Number of intersected edges : 2992
Calculated surface intersections in = 0.08 s

Initial mesh : cells:13500  faces:42525  points:15616
Cells per refinement level:
    0	13500

Adding patches for surface regions
----------------------------------

Patch Type                Region                        
----- ----                ------                        
CAD:

5     patch               fbGasin                       
6     wall                CAD_patch1                    
7     wall                CAD_patch2                    
8     wall                fbOut                         
9     patch               fbBioin                       

Added patches in = 0.01 s

Selecting decompositionMethod none
Layer thickness specified as final layer and expansion ratio.

Refinement phase
----------------

Found point (0 0 1) in cell 1011 on processor 0

Surface refinement iteration 0
------------------------------

Marked for refinement due to surface intersection          : 4180 cells.
Marked for refinement due to curvature/regions             : 0 cells.
Determined cells to refine in = 0.18 s
Selected for refinement : 4180 cells (out of 13500)
Edge intersection testing:
    Number of edges             : 139317
    Number of edges to retest   : 121783
    Number of intersected edges : 11948
Refined mesh in = 0.26 s
After refinement surface refinement iteration 0 : cells:42760  faces:139317  points:53900
Cells per refinement level:
    0	9320
    1	33440

Surface refinement iteration 1
------------------------------

Marked for refinement due to surface intersection          : 16949 cells.
Marked for refinement due to curvature/regions             : 0 cells.
Determined cells to refine in = 0.01 s
Selected for refinement : 18418 cells (out of 42760)
Edge intersection testing:
    Number of edges             : 561123
    Number of edges to retest   : 537416
    Number of intersected edges : 48020
Refined mesh in = 1.21 s
After refinement surface refinement iteration 1 : cells:171686  faces:561123  points:217867
Cells per refinement level:
    0	7798
    1	28720
    2	135168

Surface refinement iteration 2
------------------------------

Marked for refinement due to surface intersection          : 69125 cells.
Marked for refinement due to curvature/regions             : 0 cells.
Determined cells to refine in = 0.04 s
Selected for refinement : 76983 cells (out of 171686)
Edge intersection testing:
    Number of edges             : 2322045
    Number of edges to retest   : 2242758
    Number of intersected edges : 190664
Refined mesh in = 5.93 s
After refinement surface refinement iteration 2 : cells:710567  faces:2322045  points:901068
Cells per refinement level:
    0	7044
    1	27449
    2	124666
    3	551408

Surface refinement iteration 3
------------------------------

Marked for refinement due to surface intersection          : 754 cells.
Marked for refinement due to curvature/regions             : 0 cells.
Determined cells to refine in = 0.51 s
Selected for refinement : 921 cells (out of 710567)
Edge intersection testing:
    Number of edges             : 2341521
    Number of edges to retest   : 55999
    Number of intersected edges : 191485
Refined mesh in = 3.38 s
After refinement surface refinement iteration 3 : cells:717014  faces:2341521  points:907624
Cells per refinement level:
    0	7028
    1	27426
    2	125120
    3	557440

Surface refinement iteration 4
------------------------------

Marked for refinement due to surface intersection          : 73 cells.
Marked for refinement due to curvature/regions             : 0 cells.
Determined cells to refine in = 0.48 s
Selected for refinement : 87 cells (out of 717014)
Edge intersection testing:
    Number of edges             : 2343351
    Number of edges to retest   : 7562
    Number of intersected edges : 191487
Refined mesh in = 2.96 s
After refinement surface refinement iteration 4 : cells:717623  faces:2343351  points:908236
Cells per refinement level:
    0	7028
    1	27412
    2	125159
    3	558024

Surface refinement iteration 5
------------------------------

Marked for refinement due to surface intersection          : 0 cells.
Marked for refinement due to curvature/regions             : 0 cells.
Determined cells to refine in = 0.46 s
Selected for refinement : 0 cells (out of 717623)
Stopping refining since too few cells selected.


Removing mesh beyond surface intersections
------------------------------------------

Found point (0 0 1) in global region 1 out of 2 regions.
Keeping all cells in region 1 containing point (0 0 1)
Selected for keeping : 530436 cells.
Edge intersection testing:
    Number of edges             : 1779908
    Number of edges to retest   : 188638
    Number of intersected edges : 191487

Shell refinement iteration 0
----------------------------

Marked for refinement due to distance to explicit features : 0 cells.
Marked for refinement due to refinement shells             : 0 cells.
Determined cells to refine in = 19.64 s
Selected for internal refinement : 25344 cells (out of 530436)
Edge intersection testing:
    Number of edges             : 2310926
    Number of edges to retest   : 1296282
    Number of intersected edges : 191487
Refined mesh in = 4.53 s
After refinement shell refinement iteration 0 : cells:707844  faces:2310926  points:895303
Cells per refinement level:
    0	2601
    1	13216
    2	61794
    3	630233

Shell refinement iteration 1
----------------------------

Marked for refinement due to distance to explicit features : 0 cells.
Marked for refinement due to refinement shells             : 0 cells.
Determined cells to refine in = 0.84 s
Selected for internal refinement : 2053 cells (out of 707844)
Edge intersection testing:
    Number of edges             : 2353295
    Number of edges to retest   : 152375
    Number of intersected edges : 191487
Refined mesh in = 3.28 s
After refinement shell refinement iteration 1 : cells:722215  faces:2353295  points:908933
Cells per refinement level:
    0	2372
    1	13224
    2	76386
    3	630233

Shell refinement iteration 2
----------------------------

Marked for refinement due to distance to explicit features : 0 cells.
Marked for refinement due to refinement shells             : 0 cells.
Determined cells to refine in = 0.86 s
Selected for internal refinement : 228 cells (out of 722215)
Edge intersection testing:
    Number of edges             : 2357735
    Number of edges to retest   : 20140
    Number of intersected edges : 191487
Refined mesh in = 3.38 s
After refinement shell refinement iteration 2 : cells:723811  faces:2357735  points:910183
Cells per refinement level:
    0	2144
    1	15048
    2	76386
    3	630233

Shell refinement iteration 3
----------------------------

Marked for refinement due to distance to explicit features : 0 cells.
Marked for refinement due to refinement shells             : 0 cells.
Determined cells to refine in = 0.83 s
Selected for internal refinement : 0 cells (out of 723811)
Stopping refining since too few cells selected.


Dangling coarse cells refinement iteration 0
--------------------------------------------

Determined cells to refine in = 0.03 s
Selected for refinement : 1 cells (out of 723811)
Edge intersection testing:
    Number of edges             : 2357750
    Number of edges to retest   : 157
    Number of intersected edges : 191487
Refined mesh in = 3.35 s
After refinement coarse cell refinement iteration 0 : cells:723818  faces:2357750  points:910185
Cells per refinement level:
    0	2143
    1	15056
    2	76386
    3	630233

Dangling coarse cells refinement iteration 1
--------------------------------------------

Determined cells to refine in = 0.04 s
Selected for refinement : 1 cells (out of 723818)
Stopping refining since too few cells selected.


Dangling coarse cells refinement iteration 0
--------------------------------------------

Determined cells to refine in = 0.03 s
Selected for refinement : 0 cells (out of 723818)
Stopping refining since too few cells selected.


Splitting mesh at surface intersections
---------------------------------------

Introducing baffles for 191487 faces that are intersected by the surface.

Edge intersection testing:
    Number of edges             : 2549237
    Number of edges to retest   : 1221251
    Number of intersected edges : 382974
Created baffles in = 3.47 s


After introducing baffles : cells:723818  faces:2549237  points:910185
Cells per refinement level:
    0	2143
    1	15056
    2	76386
    3	630233

Introducing baffles to block off problem cells
----------------------------------------------

markFacesOnProblemCells : marked 358289 additional internal faces to be converted into baffles.
Analyzed problem cells in = 2.42 s


Introducing baffles to delete problem cells.

Edge intersection testing:
    Number of edges             : 2907526
    Number of edges to retest   : 1103266
    Number of intersected edges : 382974
Created baffles in = 3.87 s


After introducing baffles : cells:723818  faces:2907526  points:910185
Cells per refinement level:
    0	2143
    1	15056
    2	76386
    3	630233

Remove unreachable sections of mesh
-----------------------------------

Keeping all cells in region 0 containing point (0 0 1)
Selected for keeping : 513824 cells.
Edge intersection testing:
    Number of edges             : 1721077
    Number of edges to retest   : 0
    Number of intersected edges : 191486
Split mesh in = 18.27 s


After subsetting : cells:513824  faces:1721077  points:693436
Cells per refinement level:
    0	2143
    1	15056
    2	76371
    3	420254

Handling cells with snap problems
---------------------------------

Introducing baffles for 191486 faces that are intersected by the surface.

Edge intersection testing:
    Number of edges             : 1721077
    Number of edges to retest   : 604088
    Number of intersected edges : 191486
Created baffles in = 1.89 s


After introducing baffles : cells:513824  faces:1721077  points:693436
Cells per refinement level:
    0	2143
    1	15056
    2	76371
    3	420254

Introducing baffles to block off problem cells
----------------------------------------------

markFacesOnProblemCells : marked 0 additional internal faces to be converted into baffles.
Analyzed problem cells in = 1.6 s


Introducing baffles to delete problem cells.

Edge intersection testing:
    Number of edges             : 1721077
    Number of edges to retest   : 0
    Number of intersected edges : 191486
Created baffles in = 1.25 s


After introducing baffles : cells:513824  faces:1721077  points:693436
Cells per refinement level:
    0	2143
    1	15056
    2	76371
    3	420254

Remove unreachable sections of mesh
-----------------------------------

Keeping all cells in region 0 containing point (0 0 1)
Selected for keeping : 513824 cells.
Edge intersection testing:
    Number of edges             : 1721077
    Number of edges to retest   : 0
    Number of intersected edges : 191486
Split mesh in = 13.09 s


After subsetting : cells:513824  faces:1721077  points:693436
Cells per refinement level:
    0	2143
    1	15056
    2	76371
    3	420254

Merge free-standing baffles
---------------------------

freeStandingBaffles : detected 0 free-standing baffles out of 0

Detected free-standing baffles : 0
Merged free-standing baffles in = 0.69 s


dupNonManifoldPoints : Found : 0 non-manifold points (out of 693436)
Edge intersection testing:
    Number of edges             : 1721077
    Number of edges to retest   : 0
    Number of intersected edges : 191486
Detected unsplittable baffles : 0

Merge refined boundary faces
----------------------------

Merging 0 sets of faces.

No faces merged ...

Merging all points on surface that
- are used by only two boundary faces and
- make an angle with a cosine of more than 0.707107.

No straight edges simplified and no points removed ...
Refined mesh : cells:513824  faces:1721077  points:693436
Cells per refinement level:
    0	2143
    1	15056
    2	76371
    3	420254
Writing mesh to time constant
Wrote mesh in = 7.19 s.
Mesh refined in = 105.97 s.

Morphing phase
--------------


Snapping to features in 10 iterations ...
Constructing mesh displacer ...
Using mesh parameters 
{
    maxNonOrtho     65;
    maxBoundarySkewness 20;
    maxInternalSkewness 4;
    maxConcave      80;
    minVol          1e-13;
    minTetQuality   1e-15;
    minArea         -1;
    minTwist        0.02;
    minDeterminant  0.001;
    minFaceWeight   0.05;
    minVolRatio     0.01;
    minTriangleTwist -1;
    nSmoothScale    4;
    errorReduction  0.75;
}


Checking initial mesh ...
Checking faces in error :
    non-orthogonality > 65  degrees                        : 0
    faces with face pyramid volume < 1e-13                 : 0
    faces with face-decomposition tet quality < 1e-15      : 0
    faces with concavity > 80  degrees                     : 0
    faces with skewness > 4   (internal) or 20  (boundary) : 0
    faces with interpolation weights (0..1)  < 0.05        : 0
    faces with volume ratio of neighbour cells < 0.01      : 0
    faces with face twist < 0.02                           : 0
    faces on cells with determinant < 0.001                : 0
Detected 0 illegal faces (concave, zero area or negative cell pyramid volume)
Checked initial mesh in = 3.26 s


Smoothing patch points ...
Smoothing iteration 0
Found 0 non-manifold point(s).

Scaling iteration 0
Moving mesh using displacement scaling : min:1  max:1
Checking faces in error :
    non-orthogonality > 65  degrees                        : 0
    faces with face pyramid volume < 1e-13                 : 0
    faces with face-decomposition tet quality < 1e-15      : 0
    faces with concavity > 80  degrees                     : 0
    faces with skewness > 4   (internal) or 20  (boundary) : 0
    faces with interpolation weights (0..1)  < 0.05        : 0
    faces with volume ratio of neighbour cells < 0.01      : 0
    faces with face twist < 0.02                           : 0
    faces on cells with determinant < 0.001                : 0
Successfully moved mesh

Smoothing iteration 1
Found 0 non-manifold point(s).

Scaling iteration 0
Moving mesh using displacement scaling : min:1  max:1
Checking faces in error :
    non-orthogonality > 65  degrees                        : 0
    faces with face pyramid volume < 1e-13                 : 0
    faces with face-decomposition tet quality < 1e-15      : 0
    faces with concavity > 80  degrees                     : 0
    faces with skewness > 4   (internal) or 20  (boundary) : 0
    faces with interpolation weights (0..1)  < 0.05        : 0
    faces with volume ratio of neighbour cells < 0.01      : 0
    faces with face twist < 0.02                           : 0
    faces on cells with determinant < 0.001                : 0
Successfully moved mesh

Smoothing iteration 2
Found 0 non-manifold point(s).

Scaling iteration 0
Moving mesh using displacement scaling : min:1  max:1
Checking faces in error :
    non-orthogonality > 65  degrees                        : 0
    faces with face pyramid volume < 1e-13                 : 0
    faces with face-decomposition tet quality < 1e-15      : 0
    faces with concavity > 80  degrees                     : 0
    faces with skewness > 4   (internal) or 20  (boundary) : 0
    faces with interpolation weights (0..1)  < 0.05        : 0
    faces with volume ratio of neighbour cells < 0.01      : 0
    faces with face twist < 0.02                           : 0
    faces on cells with determinant < 0.001                : 0
Successfully moved mesh

Patch points smoothed in = 12.26 s



Morph iteration 0
-----------------
Calculating patchDisplacement as distance to nearest surface point ...
Wanted displacement : average:0.00403083 min:3.9419e-07 max:0.0200092
Calculated surface displacement in = 0.17 s


Detecting near surfaces ...
Overriding nearest with intersection of close gaps at 0 out of 191488 points.
Overriding displacement on features :
   implicit features    : true
   explicit features    : false
   multi-patch features : false

Attraction:
     linear   : max:(0.0200092 1.80729e-17 0) avg:(-0.000138321 1.21718e-07 0.000406325)
     feature  : max:(-0.0264337 -0.00140531 -2.99284e-06) avg:(-0.000145704 1.59402e-07 0.000384626)
Feature analysis : total master points:191488 attraction to :
    feature point   : 0
    feature edge    : 0
    nearest surface : 191488
    rest            : 0

--> FOAM Warning : Displacement (-3.72164e-06 -2.60582e-05 0.000441927) at mesh point 421776 coord (-0.0882225 -0.977871 -0.00672456) points through the surrounding patch faces
Smoothing displacement ...
Iteration 0
Iteration 10
Iteration 20
Displacement smoothed in = 3.82 s


Moving mesh ...

Iteration 0
Moving mesh using displacement scaling : min:1  max:1
Checking faces in error :
    non-orthogonality > 65  degrees                        : 0
    faces with face pyramid volume < 1e-13                 : 0
    faces with face-decomposition tet quality < 1e-15      : 0
    faces with concavity > 80  degrees                     : 0
    faces with skewness > 4   (internal) or 20  (boundary) : 0
    faces with interpolation weights (0..1)  < 0.05        : 0
    faces with volume ratio of neighbour cells < 0.01      : 0
    faces with face twist < 0.02                           : 0
    faces on cells with determinant < 0.001                : 0
Successfully moved mesh
Moved mesh in = 3.75 s



Morph iteration 1
-----------------
Calculating patchDisplacement as distance to nearest surface point ...
Wanted displacement : average:0.00372676 min:7.54945e-08 max:0.019802
Calculated surface displacement in = 0.17 s


Detecting near surfaces ...
Overriding nearest with intersection of close gaps at 0 out of 191488 points.
Overriding displacement on features :
   implicit features    : true
   explicit features    : false
   multi-patch features : false

Attraction:
     linear   : max:(0.019802 -1.71067e-17 0) avg:(-0.000124512 7.95758e-08 0.00036727)
     feature  : max:(0 0 -0.0264423) avg:(-0.00013191 -6.2389e-08 0.000345721)
Feature analysis : total master points:191488 attraction to :
    feature point   : 0
    feature edge    : 0
    nearest surface : 191488
    rest            : 0

--> FOAM Warning : Displacement (-3.35359e-06 -6.33992e-07 0.000834702) at mesh point 421776 coord (-0.0882262 -0.977897 -0.00628263) points through the surrounding patch faces
Smoothing displacement ...
Iteration 0
Iteration 10
Iteration 20
Displacement smoothed in = 3.82 s


Moving mesh ...

Iteration 0
Moving mesh using displacement scaling : min:1  max:1
Checking faces in error :
    non-orthogonality > 65  degrees                        : 0
    faces with face pyramid volume < 1e-13                 : 0
    faces with face-decomposition tet quality < 1e-15      : 0
    faces with concavity > 80  degrees                     : 0
    faces with skewness > 4   (internal) or 20  (boundary) : 0
    faces with interpolation weights (0..1)  < 0.05        : 0
    faces with volume ratio of neighbour cells < 0.01      : 0
    faces with face twist < 0.02                           : 0
    faces on cells with determinant < 0.001                : 0
Successfully moved mesh
Moved mesh in = 3.78 s



Morph iteration 2
-----------------
Calculating patchDisplacement as distance to nearest surface point ...
Wanted displacement : average:0.00316994 min:2.15595e-07 max:0.0190394
Calculated surface displacement in = 0.18 s


Detecting near surfaces ...
Overriding nearest with intersection of close gaps at 0 out of 191488 points.
Overriding displacement on features :
   implicit features    : true
   explicit features    : false
   multi-patch features : false

Attraction:
     linear   : max:(0 0.00105269 0.0190103) avg:(-9.98241e-05 -2.75301e-09 0.000296067)
     feature  : max:(-0.0262001 -0.00139289 -2.96639e-06) avg:(-0.000107436 -2.10121e-07 0.000275859)
Feature analysis : total master points:191488 attraction to :
    feature point   : 0
    feature edge    : 0
    nearest surface : 191488
    rest            : 0

--> FOAM Warning : Displacement (1.05127e-07 6.17726e-05 0.00108172) at mesh point 421776 coord (-0.0882296 -0.977897 -0.00544793) points through the surrounding patch faces
Smoothing displacement ...
Iteration 0
Iteration 10
Iteration 20
Displacement smoothed in = 3.76 s


Moving mesh ...

Iteration 0
Moving mesh using displacement scaling : min:1  max:1
Checking faces in error :
    non-orthogonality > 65  degrees                        : 0
    faces with face pyramid volume < 1e-13                 : 0
    faces with face-decomposition tet quality < 1e-15      : 0
    faces with concavity > 80  degrees                     : 0
    faces with skewness > 4   (internal) or 20  (boundary) : 0
    faces with interpolation weights (0..1)  < 0.05        : 0
    faces with volume ratio of neighbour cells < 0.01      : 0
    faces with face twist < 0.02                           : 0
    faces on cells with determinant < 0.001                : 0
Successfully moved mesh
Moved mesh in = 3.93 s



Morph iteration 3
-----------------
Calculating patchDisplacement as distance to nearest surface point ...
Wanted displacement : average:0.00248853 min:5.65284e-08 max:0.015879
Calculated surface displacement in = 0.17 s


Detecting near surfaces ...
Overriding nearest with intersection of close gaps at 0 out of 191488 points.
Overriding displacement on features :
   implicit features    : true
   explicit features    : false
   multi-patch features : false

Attraction:
     linear   : max:(0 0.000877952 0.0158547) avg:(-6.96469e-05 -7.60483e-08 0.000209682)
     feature  : max:(-0.0259172 -0.00137785 -2.93436e-06) avg:(-7.67297e-05 -1.93892e-07 0.000190425)
Feature analysis : total master points:191488 attraction to :
    feature point   : 0
    feature edge    : 0
    nearest surface : 191488
    rest            : 0

--> FOAM Warning : Displacement (4.51406e-06 0.000130115 0.0011421) at mesh point 421776 coord (-0.0882295 -0.977836 -0.00436621) points through the surrounding patch faces
Smoothing displacement ...
Iteration 0
Iteration 10
Iteration 20
Displacement smoothed in = 4.04 s


Moving mesh ...

Iteration 0
Moving mesh using displacement scaling : min:1  max:1
Checking faces in error :
    non-orthogonality > 65  degrees                        : 0
    faces with face pyramid volume < 1e-13                 : 0
    faces with face-decomposition tet quality < 1e-15      : 0
    faces with concavity > 80  degrees                     : 0
    faces with skewness > 4   (internal) or 20  (boundary) : 0
    faces with interpolation weights (0..1)  < 0.05        : 0
    faces with volume ratio of neighbour cells < 0.01      : 0
    faces with face twist < 0.02                           : 0
    faces on cells with determinant < 0.001                : 0
Successfully moved mesh
Moved mesh in = 3.97 s



Morph iteration 4
-----------------
Calculating patchDisplacement as distance to nearest surface point ...
Wanted displacement : average:0.00179745 min:2.92567e-08 max:0.012274
Calculated surface displacement in = 0.18 s


Detecting near surfaces ...
Overriding nearest with intersection of close gaps at 0 out of 191488 points.
Overriding displacement on features :
   implicit features    : true
   explicit features    : false
   multi-patch features : false

Attraction:
     linear   : max:(0 0.000678628 0.0122552) avg:(-4.152e-05 -1.18845e-07 0.000128053)
     feature  : max:(-0.0255072 -0.00135605 -2.88793e-06) avg:(-4.79021e-05 -1.87502e-07 0.000109747)
Feature analysis : total master points:191488 attraction to :
    feature point   : 0
    feature edge    : 0
    nearest surface : 191488
    rest            : 0

--> FOAM Warning : Displacement (8.13009e-06 0.000173202 0.00103985) at mesh point 421776 coord (-0.0882249 -0.977706 -0.00322411) points through the surrounding patch faces
Smoothing displacement ...
Iteration 0
Iteration 10
Iteration 20
Displacement smoothed in = 3.77 s


Moving mesh ...

Iteration 0
Moving mesh using displacement scaling : min:1  max:1
Checking faces in error :
    non-orthogonality > 65  degrees                        : 0
    faces with face pyramid volume < 1e-13                 : 0
    faces with face-decomposition tet quality < 1e-15      : 0
    faces with concavity > 80  degrees                     : 0
    faces with skewness > 4   (internal) or 20  (boundary) : 0
    faces with interpolation weights (0..1)  < 0.05        : 0
    faces with volume ratio of neighbour cells < 0.01      : 0
    faces with face twist < 0.02                           : 0
    faces on cells with determinant < 0.001                : 0
Successfully moved mesh
Moved mesh in = 3.74 s



Morph iteration 5
-----------------
Calculating patchDisplacement as distance to nearest surface point ...
Wanted displacement : average:0.0011767 min:1.9235e-08 max:0.0104236
Calculated surface displacement in = 0.18 s


Detecting near surfaces ...
Overriding nearest with intersection of close gaps at 0 out of 191488 points.
Overriding displacement on features :
   implicit features    : true
   explicit features    : false
   multi-patch features : false

Attraction:
     linear   : max:(-0.010304 -0.0015749 -3.21313e-07) avg:(-2.07623e-05 -1.20155e-07 6.55737e-05)
     feature  : max:(-0.0249832 -0.00132819 -2.82861e-06) avg:(-2.62056e-05 -1.52651e-07 4.95792e-05)
Feature analysis : total master points:191488 attraction to :
    feature point   : 0
    feature edge    : 0
    nearest surface : 191488
    rest            : 0

--> FOAM Warning : Displacement (1.03198e-05 0.000178389 0.000838859) at mesh point 421776 coord (-0.0882168 -0.977532 -0.00218425) points through the surrounding patch faces
Smoothing displacement ...
Iteration 0
Iteration 10
Iteration 20
Displacement smoothed in = 3.81 s


Moving mesh ...

Iteration 0
Moving mesh using displacement scaling : min:1  max:1
Checking faces in error :
    non-orthogonality > 65  degrees                        : 0
    faces with face pyramid volume < 1e-13                 : 0
    faces with face-decomposition tet quality < 1e-15      : 0
    faces with concavity > 80  degrees                     : 0
    faces with skewness > 4   (internal) or 20  (boundary) : 0
    faces with interpolation weights (0..1)  < 0.05        : 0
    faces with volume ratio of neighbour cells < 0.01      : 0
    faces with face twist < 0.02                           : 0
    faces on cells with determinant < 0.001                : 0
Successfully moved mesh
Moved mesh in = 3.76 s



Morph iteration 6
-----------------
Calculating patchDisplacement as distance to nearest surface point ...
Wanted displacement : average:0.000684103 min:2.83812e-08 max:0.00857371
Calculated surface displacement in = 0.2 s


Detecting near surfaces ...
Overriding nearest with intersection of close gaps at 0 out of 191488 points.
Overriding displacement on features :
   implicit features    : true
   explicit features    : false
   multi-patch features : false

Attraction:
     linear   : max:(0.0011191 -0.00850036 0) avg:(-8.06196e-06 -1.04477e-07 2.70383e-05)
     feature  : max:(-0.0243976 -0.00129706 -2.76231e-06) avg:(-1.23074e-05 -6.94986e-08 1.3022e-05)
Feature analysis : total master points:191488 attraction to :
    feature point   : 0
    feature edge    : 0
    nearest surface : 191488
    rest            : 0

--> FOAM Warning : Displacement (1.09927e-05 0.000154221 0.000606925) at mesh point 421776 coord (-0.0882065 -0.977354 -0.00134539) points through the surrounding patch faces
Smoothing displacement ...
Iteration 0
Iteration 10
Iteration 20
Displacement smoothed in = 3.83 s


Moving mesh ...

Iteration 0
Moving mesh using displacement scaling : min:1  max:1
Checking faces in error :
    non-orthogonality > 65  degrees                        : 0
    faces with face pyramid volume < 1e-13                 : 0
    faces with face-decomposition tet quality < 1e-15      : 0
    faces with concavity > 80  degrees                     : 0
    faces with skewness > 4   (internal) or 20  (boundary) : 0
    faces with interpolation weights (0..1)  < 0.05        : 0
    faces with volume ratio of neighbour cells < 0.01      : 0
    faces with face twist < 0.02                           : 0
    faces on cells with determinant < 0.001                : 0
Successfully moved mesh
Moved mesh in = 4.22 s



Morph iteration 7
-----------------
Calculating patchDisplacement as distance to nearest surface point ...
Wanted displacement : average:0.000327166 min:5.1199e-09 max:0.00611472
Calculated surface displacement in = 0.18 s


Detecting near surfaces ...
Overriding nearest with intersection of close gaps at 0 out of 191488 points.
Overriding displacement on features :
   implicit features    : true
   explicit features    : false
   multi-patch features : false

Attraction:
     linear   : max:(-2.22045e-16 8.32667e-17 0.00611472) avg:(-2.09194e-06 -5.68291e-08 8.72586e-06)
     feature  : max:(-0.02385 -0.00126795 -2.70031e-06) avg:(-8.04579e-06 5.28787e-09 -3.55318e-06)
Feature analysis : total master points:191488 attraction to :
    feature point   : 0
    feature edge    : 0
    nearest surface : 191488
    rest            : 0

--> FOAM Warning : Displacement (1.0028e-05 0.000117231 0.000391175) at mesh point 421776 coord (-0.0881955 -0.9772 -0.000738467) points through the surrounding patch faces
Smoothing displacement ...
Iteration 0
Iteration 10
Iteration 20
Displacement smoothed in = 3.89 s


Moving mesh ...

Iteration 0
Moving mesh using displacement scaling : min:1  max:1
Checking faces in error :
    non-orthogonality > 65  degrees                        : 0
    faces with face pyramid volume < 1e-13                 : 0
    faces with face-decomposition tet quality < 1e-15      : 1
    faces with concavity > 80  degrees                     : 0
    faces with skewness > 4   (internal) or 20  (boundary) : 0
    faces with interpolation weights (0..1)  < 0.05        : 0
    faces with volume ratio of neighbour cells < 0.01      : 0
    faces with face twist < 0.02                           : 0
    faces on cells with determinant < 0.001                : 0

Iteration 1
Moving mesh using displacement scaling : min:0.75  max:1
Checking faces in error :
    non-orthogonality > 65  degrees                        : 0
    faces with face pyramid volume < 1e-13                 : 0
    faces with face-decomposition tet quality < 1e-15      : 1
    faces with concavity > 80  degrees                     : 0
    faces with skewness > 4   (internal) or 20  (boundary) : 0
    faces with interpolation weights (0..1)  < 0.05        : 0
    faces with volume ratio of neighbour cells < 0.01      : 0
    faces with face twist < 0.02                           : 0
    faces on cells with determinant < 0.001                : 0

Iteration 2
Moving mesh using displacement scaling : min:0.5625  max:1
Checking faces in error :
    non-orthogonality > 65  degrees                        : 0
    faces with face pyramid volume < 1e-13                 : 0
    faces with face-decomposition tet quality < 1e-15      : 0
    faces with concavity > 80  degrees                     : 0
    faces with skewness > 4   (internal) or 20  (boundary) : 0
    faces with interpolation weights (0..1)  < 0.05        : 0
    faces with volume ratio of neighbour cells < 0.01      : 0
    faces with face twist < 0.02                           : 1
    faces on cells with determinant < 0.001                : 0

Iteration 3
Moving mesh using displacement scaling : min:0.421875  max:1
Checking faces in error :
    non-orthogonality > 65  degrees                        : 0
    faces with face pyramid volume < 1e-13                 : 0
    faces with face-decomposition tet quality < 1e-15      : 0
    faces with concavity > 80  degrees                     : 0
    faces with skewness > 4   (internal) or 20  (boundary) : 0
    faces with interpolation weights (0..1)  < 0.05        : 0
    faces with volume ratio of neighbour cells < 0.01      : 0
    faces with face twist < 0.02                           : 0
    faces on cells with determinant < 0.001                : 0
Successfully moved mesh
Moved mesh in = 7.05 s



Morph iteration 8
-----------------
Calculating patchDisplacement as distance to nearest surface point ...
Wanted displacement : average:0.000114681 min:6.39539e-09 max:0.00413807
Calculated surface displacement in = 0.15 s


Detecting near surfaces ...
Overriding nearest with intersection of close gaps at 0 out of 191488 points.
Overriding displacement on features :
   implicit features    : true
   explicit features    : false
   multi-patch features : false

Attraction:
     linear   : max:(0 0 0.00413807) avg:(-2.32918e-07 -1.77129e-08 1.97575e-06)
     feature  : max:(0.000105845 0.00742046 -0.0224629) avg:(2.68339e-06 1.69703e-08 -8.67125e-06)
Feature analysis : total master points:191488 attraction to :
    feature point   : 0
    feature edge    : 0
    nearest surface : 191488
    rest            : 0

--> FOAM Warning : Displacement (7.58802e-06 7.95481e-05 0.000216141) at mesh point 421776 coord (-0.0881855 -0.977083 -0.000347292) points through the surrounding patch faces
Smoothing displacement ...
Iteration 0
Iteration 10
Iteration 20
Displacement smoothed in = 3.64 s


Moving mesh ...

Iteration 0
Moving mesh using displacement scaling : min:1  max:1
Checking faces in error :
    non-orthogonality > 65  degrees                        : 0
    faces with face pyramid volume < 1e-13                 : 0
    faces with face-decomposition tet quality < 1e-15      : 2
    faces with concavity > 80  degrees                     : 0
    faces with skewness > 4   (internal) or 20  (boundary) : 0
    faces with interpolation weights (0..1)  < 0.05        : 0
    faces with volume ratio of neighbour cells < 0.01      : 0
    faces with face twist < 0.02                           : 0
    faces on cells with determinant < 0.001                : 0

Iteration 1
Moving mesh using displacement scaling : min:0.75  max:1
Checking faces in error :
    non-orthogonality > 65  degrees                        : 0
    faces with face pyramid volume < 1e-13                 : 0
    faces with face-decomposition tet quality < 1e-15      : 1
    faces with concavity > 80  degrees                     : 0
    faces with skewness > 4   (internal) or 20  (boundary) : 0
    faces with interpolation weights (0..1)  < 0.05        : 0
    faces with volume ratio of neighbour cells < 0.01      : 0
    faces with face twist < 0.02                           : 0
    faces on cells with determinant < 0.001                : 0

Iteration 2
Moving mesh using displacement scaling : min:0.5625  max:1
Checking faces in error :
    non-orthogonality > 65  degrees                        : 0
    faces with face pyramid volume < 1e-13                 : 0
    faces with face-decomposition tet quality < 1e-15      : 1
    faces with concavity > 80  degrees                     : 0
    faces with skewness > 4   (internal) or 20  (boundary) : 0
    faces with interpolation weights (0..1)  < 0.05        : 0
    faces with volume ratio of neighbour cells < 0.01      : 0
    faces with face twist < 0.02                           : 0
    faces on cells with determinant < 0.001                : 0

Iteration 3
Moving mesh using displacement scaling : min:0.421875  max:1
Checking faces in error :
    non-orthogonality > 65  degrees                        : 0
    faces with face pyramid volume < 1e-13                 : 0
    faces with face-decomposition tet quality < 1e-15      : 1
    faces with concavity > 80  degrees                     : 0
    faces with skewness > 4   (internal) or 20  (boundary) : 0
    faces with interpolation weights (0..1)  < 0.05        : 0
    faces with volume ratio of neighbour cells < 0.01      : 0
    faces with face twist < 0.02                           : 0
    faces on cells with determinant < 0.001                : 0

Iteration 4
Moving mesh using displacement scaling : min:0.316406  max:1
Checking faces in error :
    non-orthogonality > 65  degrees                        : 0
    faces with face pyramid volume < 1e-13                 : 0
    faces with face-decomposition tet quality < 1e-15      : 1
    faces with concavity > 80  degrees                     : 0
    faces with skewness > 4   (internal) or 20  (boundary) : 0
    faces with interpolation weights (0..1)  < 0.05        : 0
    faces with volume ratio of neighbour cells < 0.01      : 0
    faces with face twist < 0.02                           : 0
    faces on cells with determinant < 0.001                : 0

Iteration 5
Displacement scaling for error reduction set to 0.
Moving mesh using displacement scaling : min:0.237305  max:1
Checking faces in error :
    non-orthogonality > 65  degrees                        : 0
    faces with face pyramid volume < 1e-13                 : 0
    faces with face-decomposition tet quality < 1e-15      : 0
    faces with concavity > 80  degrees                     : 0
    faces with skewness > 4   (internal) or 20  (boundary) : 0
    faces with interpolation weights (0..1)  < 0.05        : 0
    faces with volume ratio of neighbour cells < 0.01      : 0
    faces with face twist < 0.02                           : 1
    faces on cells with determinant < 0.001                : 0

Iteration 6
Moving mesh using displacement scaling : min:0  max:1
Checking faces in error :
    non-orthogonality > 65  degrees                        : 0
    faces with face pyramid volume < 1e-13                 : 0
    faces with face-decomposition tet quality < 1e-15      : 0
    faces with concavity > 80  degrees                     : 0
    faces with skewness > 4   (internal) or 20  (boundary) : 0
    faces with interpolation weights (0..1)  < 0.05        : 0
    faces with volume ratio of neighbour cells < 0.01      : 0
    faces with face twist < 0.02                           : 0
    faces on cells with determinant < 0.001                : 0
Successfully moved mesh
Moved mesh in = 10.48 s



Morph iteration 9
-----------------
Calculating patchDisplacement as distance to nearest surface point ...
Wanted displacement : average:2.37389e-05 min:4.84192e-10 max:0.0024453
Calculated surface displacement in = 0.14 s


Detecting near surfaces ...
Overriding nearest with intersection of close gaps at 0 out of 191488 points.
Overriding displacement on features :
   implicit features    : true
   explicit features    : false
   multi-patch features : false

Attraction:
     linear   : max:(0 0 0.0024453) avg:(8.68226e-08 1.07623e-09 2.76959e-07)
     feature  : max:(0.000106247 0.0074486 -0.0225481) avg:(2.94319e-06 4.07786e-08 -9.17736e-06)
Feature analysis : total master points:191488 attraction to :
    feature point   : 0
    feature edge    : 0
    nearest surface : 191488
    rest            : 0

--> FOAM Warning : Displacement (-1.38778e-17 0 0.000131151) at mesh point 421776 coord (-0.0881779 -0.977003 -0.000131151) points through the surrounding patch faces
Smoothing displacement ...
Iteration 0
Iteration 10
Iteration 20
Displacement smoothed in = 2.96 s


Moving mesh ...

Iteration 0
Moving mesh using displacement scaling : min:1  max:1
Checking faces in error :
    non-orthogonality > 65  degrees                        : 0
    faces with face pyramid volume < 1e-13                 : 0
    faces with face-decomposition tet quality < 1e-15      : 3
    faces with concavity > 80  degrees                     : 0
    faces with skewness > 4   (internal) or 20  (boundary) : 0
    faces with interpolation weights (0..1)  < 0.05        : 0
    faces with volume ratio of neighbour cells < 0.01      : 0
    faces with face twist < 0.02                           : 2
    faces on cells with determinant < 0.001                : 0

Iteration 1
Moving mesh using displacement scaling : min:0.75  max:1
Checking faces in error :
    non-orthogonality > 65  degrees                        : 0
    faces with face pyramid volume < 1e-13                 : 0
    faces with face-decomposition tet quality < 1e-15      : 3
    faces with concavity > 80  degrees                     : 0
    faces with skewness > 4   (internal) or 20  (boundary) : 0
    faces with interpolation weights (0..1)  < 0.05        : 0
    faces with volume ratio of neighbour cells < 0.01      : 0
    faces with face twist < 0.02                           : 1
    faces on cells with determinant < 0.001                : 0

Iteration 2
Moving mesh using displacement scaling : min:0.5625  max:1
Checking faces in error :
    non-orthogonality > 65  degrees                        : 0
    faces with face pyramid volume < 1e-13                 : 0
    faces with face-decomposition tet quality < 1e-15      : 1
    faces with concavity > 80  degrees                     : 0
    faces with skewness > 4   (internal) or 20  (boundary) : 0
    faces with interpolation weights (0..1)  < 0.05        : 0
    faces with volume ratio of neighbour cells < 0.01      : 0
    faces with face twist < 0.02                           : 1
    faces on cells with determinant < 0.001                : 0

Iteration 3
Moving mesh using displacement scaling : min:0.421875  max:1
Checking faces in error :
    non-orthogonality > 65  degrees                        : 0
    faces with face pyramid volume < 1e-13                 : 0
    faces with face-decomposition tet quality < 1e-15      : 1
    faces with concavity > 80  degrees                     : 0
    faces with skewness > 4   (internal) or 20  (boundary) : 0
    faces with interpolation weights (0..1)  < 0.05        : 0
    faces with volume ratio of neighbour cells < 0.01      : 0
    faces with face twist < 0.02                           : 1
    faces on cells with determinant < 0.001                : 0

Iteration 4
Moving mesh using displacement scaling : min:0.316406  max:1
Checking faces in error :
    non-orthogonality > 65  degrees                        : 0
    faces with face pyramid volume < 1e-13                 : 0
    faces with face-decomposition tet quality < 1e-15      : 1
    faces with concavity > 80  degrees                     : 0
    faces with skewness > 4   (internal) or 20  (boundary) : 0
    faces with interpolation weights (0..1)  < 0.05        : 0
    faces with volume ratio of neighbour cells < 0.01      : 0
    faces with face twist < 0.02                           : 0
    faces on cells with determinant < 0.001                : 0

Iteration 5
Displacement scaling for error reduction set to 0.
Moving mesh using displacement scaling : min:0.237305  max:1
Checking faces in error :
    non-orthogonality > 65  degrees                        : 0
    faces with face pyramid volume < 1e-13                 : 0
    faces with face-decomposition tet quality < 1e-15      : 1
    faces with concavity > 80  degrees                     : 0
    faces with skewness > 4   (internal) or 20  (boundary) : 0
    faces with interpolation weights (0..1)  < 0.05        : 0
    faces with volume ratio of neighbour cells < 0.01      : 0
    faces with face twist < 0.02                           : 0
    faces on cells with determinant < 0.001                : 0

Iteration 6
Moving mesh using displacement scaling : min:0  max:1
Checking faces in error :
    non-orthogonality > 65  degrees                        : 0
    faces with face pyramid volume < 1e-13                 : 0
    faces with face-decomposition tet quality < 1e-15      : 0
    faces with concavity > 80  degrees                     : 0
    faces with skewness > 4   (internal) or 20  (boundary) : 0
    faces with interpolation weights (0..1)  < 0.05        : 0
    faces with volume ratio of neighbour cells < 0.01      : 0
    faces with face twist < 0.02                           : 0
    faces on cells with determinant < 0.001                : 0
Successfully moved mesh
Moved mesh in = 10.45 s


Repatching faces according to nearest surface ...
Repatched 110 faces in = 0.91 s


Edge intersection testing:
    Number of edges             : 1721077
    Number of edges to retest   : 604088
    Number of intersected edges : 191472
Merging 52347 sets of faces.

Edge intersection testing:
    Number of edges             : 1668645
    Number of edges to retest   : 209555
    Number of intersected edges : 139025

Undo iteration 0
----------------
Checking faces in error :
    non-orthogonality > 65  degrees                        : 0
    faces with face pyramid volume < 1e-13                 : 0
    faces with face-decomposition tet quality < 1e-15      : 0
    faces with concavity > 80  degrees                     : 0
    faces with skewness > 4   (internal) or 20  (boundary) : 0
    faces with interpolation weights (0..1)  < 0.05        : 0
    faces with volume ratio of neighbour cells < 0.01      : 0
    faces with face twist < 0.02                           : 0
    faces on cells with determinant < 0.001                : 0

Merging all points on surface that
- are used by only two boundary faces and
- make an angle with a cosine of more than -0.0871557.

Removing 52325 straight edge points ...

Edge intersection testing:
    Number of edges             : 1668645
    Number of edges to retest   : 209487
    Number of intersected edges : 138951

Undo iteration 0
----------------
Checking faces in error :
    non-orthogonality > 65  degrees                        : 0
    faces with face pyramid volume < 1e-13                 : 0
    faces with face-decomposition tet quality < 1e-15      : 0
    faces with concavity > 80  degrees                     : 0
    faces with skewness > 4   (internal) or 20  (boundary) : 0
    faces with interpolation weights (0..1)  < 0.05        : 0
    faces with volume ratio of neighbour cells < 0.01      : 0
    faces with face twist < 0.02                           : 0
    faces on cells with determinant < 0.001                : 0

Removing zero-sized patches:
    frontAndBack type patch at position 0
    inlet type patch at position 1
    outlet type patch at position 2
    lowerWall type patch at position 3
    upperWall type patch at position 4

Snapped mesh : cells:513824  faces:1668645  points:641026
Cells per refinement level:
    0	2143
    1	15056
    2	76371
    3	420254
Writing mesh to time constant
Wrote mesh in = 17.33 s.
Mesh snapped in = 127.95 s.
Checking final mesh ...
Checking faces in error :
    non-orthogonality > 65  degrees                        : 0
    faces with face pyramid volume < 1e-13                 : 0
    faces with face-decomposition tet quality < 1e-15      : 0
    faces with concavity > 80  degrees                     : 0
    faces with skewness > 4   (internal) or 20  (boundary) : 0
    faces with interpolation weights (0..1)  < 0.05        : 0
    faces with volume ratio of neighbour cells < 0.01      : 0
    faces with face twist < 0.02                           : 0
    faces on cells with determinant < 0.001                : 0
Finished meshing without any errors
Finished meshing in = 236.99 s.
End

