
//   run_parallel_cfdemSolverPiso_fluidizedbedTestMPI_CFDDEM   //

/home/hwb/CFDEM/bubbling_fluidized_bed/fluidizedbedTest_restart/CFD

/*---------------------------------------------------------------------------*\
| =========                 |                                                 |
| \\      /  F ield         | OpenFOAM: The Open Source CFD Toolbox           |
|  \\    /   O peration     | Version:  5.x                                   |
|   \\  /    A nd           | Web:      www.OpenFOAM.org                      |
|    \\/     M anipulation  |                                                 |
\*---------------------------------------------------------------------------*/
Build  : 5.x-197d9d3bf20a
Exec   : cfdemSolverPiso -parallel
Date   : Jul 14 2020
Time   : 12:47:36
Host   : "hwb-virtual-machine"
PID    : 94391
I/O    : uncollated
Case   : /home/hwb/CFDEM/bubbling_fluidized_bed/fluidizedbedTest_restart/CFD
nProcs : 4
Slaves : 
3
(
"hwb-virtual-machine.94392"
"hwb-virtual-machine.94393"
"hwb-virtual-machine.94394"
)

Pstream initialized with:
    floatTransfer      : 0
    nProcsSimpleSum    : 0
    commsType          : nonBlocking
    polling iterations : 0
sigFpe : Enabling floating point exception trapping (FOAM_SIGFPE).
fileModificationChecking : Monitoring run-time modified files using timeStampMaster (fileModificationSkew 10)
allowSystemOperations : Allowing user-supplied system call operations

// * * * * * * * * * * * * * * * * * * * * * * * * * * * * * * * * * * * * * //
Create time

Create mesh for time = 0


PISO: Operating solver in PISO mode

Reading field p

[2] 
[0] 
[0] 
[0] --> FOAM FATAL ERROR: 
[0] cannot find file "/home/hwb/CFDEM/bubbling_fluidized_bed/fluidizedbedTest_restart/CFD/processor0/0/p"
[0] 
[0]     From function virtual Foam::autoPtr<Foam::ISstream> Foam::fileOperations::uncollatedFileOperation::readStream(Foam::regIOobject&, const Foam::fileName&, const Foam::word&, bool) const
[0]     in file global/fileOperations/uncollatedFileOperation/uncollatedFileOperation.C at line 505.
[0] 
FOAM parallel run exiting
[0] 
[1] 
[1] 
[1] --> FOAM FATAL ERROR: 
[1] cannot find file "/home/hwb/CFDEM/bubbling_fluidized_bed/fluidizedbedTest_restart/CFD/processor1/0/p"
[1] 
[1]     From function virtual Foam::autoPtr<Foam::ISstream> Foam::fileOperations::uncollatedFileOperation::readStream(Foam::regIOobject&, const Foam::fileName&, const Foam::word&, bool) const
[1]     in file global/fileOperations/uncollatedFileOperation/uncollatedFileOperation.C at line 505.
[1] 
FOAM parallel run exiting
[1] 
[3] 
[3] 
[3] --> FOAM FATAL ERROR: 
[3] cannot find file "/home/hwb/CFDEM/bubbling_fluidized_bed/fluidizedbedTest_restart/CFD/processor3/0/p"
[3] 
[3]     From function virtual Foam::autoPtr<Foam::ISstream> Foam::fileOperations::uncollatedFileOperation::readStream(Foam::regIOobject&, const Foam::fileName&, const Foam::word&, bool) const
[3]     in file global/fileOperations/uncollatedFileOperation/uncollatedFileOperation.C at line 505.
[3] 
FOAM parallel run exiting
[3] 
[2] 
[2] --> FOAM FATAL ERROR: 
[2] cannot find file "/home/hwb/CFDEM/bubbling_fluidized_bed/fluidizedbedTest_restart/CFD/processor2/0/p"
[2] 
[2]     From function virtual Foam::autoPtr<Foam::ISstream> Foam::fileOperations::uncollatedFileOperation::readStream(Foam::regIOobject&, const Foam::fileName&, const Foam::word&, bool) const
[2]     in file global/fileOperations/uncollatedFileOperation/uncollatedFileOperation.C at line 505.
[2] 
FOAM parallel run exiting
[2] 
--------------------------------------------------------------------------
MPI_ABORT was invoked on rank 0 in communicator MPI_COMM_WORLD 
with errorcode 1.

NOTE: invoking MPI_ABORT causes Open MPI to kill all MPI processes.
You may or may not see output from other processes, depending on
exactly when Open MPI kills them.
--------------------------------------------------------------------------
[hwb-virtual-machine:94388] 3 more processes have sent help message help-mpi-api.txt / mpi-abort
[hwb-virtual-machine:94388] Set MCA parameter "orte_base_help_aggregate" to 0 to see all help / error messages
