
//   run_parallel_cfdemSolverPiso_fluidizedbedTestMPI_CFDDEM   //

/home/hwb/CFDEM/bubbling_fluidized_bed/fluidizedbedTest/CFD

/*---------------------------------------------------------------------------*\
| =========                 |                                                 |
| \\      /  F ield         | OpenFOAM: The Open Source CFD Toolbox           |
|  \\    /   O peration     | Version:  5.x                                   |
|   \\  /    A nd           | Web:      www.OpenFOAM.org                      |
|    \\/     M anipulation  |                                                 |
\*---------------------------------------------------------------------------*/
Build  : 5.x-197d9d3bf20a
Exec   : cfdemSolverPiso -parallel
Date   : Jul 27 2020
Time   : 07:12:53
Host   : "hwb-virtual-machine"
PID    : 97076
I/O    : uncollated
Case   : /home/hwb/CFDEM/bubbling_fluidized_bed/fluidizedbedTest/CFD
nProcs : 4
Slaves : 
3
(
"hwb-virtual-machine.97077"
"hwb-virtual-machine.97078"
"hwb-virtual-machine.97079"
)

Pstream initialized with:
    floatTransfer      : 0
    nProcsSimpleSum    : 0
    commsType          : nonBlocking
    polling iterations : 0
sigFpe : Enabling floating point exception trapping (FOAM_SIGFPE).
fileModificationChecking : Monitoring run-time modified files using timeStampMaster (fileModificationSkew 10)
allowSystemOperations : Allowing user-supplied system call operations

// * * * * * * * * * * * * * * * * * * * * * * * * * * * * * * * * * * * * * //
Create time

Create mesh for time = 0


PISO: Operating solver in PISO mode

Reading field p

Reading physical velocity field U
Note: only if voidfraction at boundary is 1, U is superficial velocity!!!


Reading momentum exchange field Ksl


Reading voidfraction field voidfraction = (Vgas/Vparticle)


Creating density field rho

Reading particle velocity field Us

Reading/calculating face flux field phi

Generating interstitial face flux field phiByVoidfraction

Selecting incompressible transport model Newtonian
Selecting turbulence model type laminar
Selecting laminar stress model Stokes
No finite volume options present


Reading g
Selecting locateModel engine
Selecting dataExchangeModel twoWayMPI
Starting up LIGGGHTS for first time execution
Executing input script '../DEM/in.liggghts_run'
LIGGGHTS (Version LIGGGHTS-PUBLIC 3.8.0, compiled 2017-12-08-22:42:34 by hwb, git commit unknown)
Reading restart file ...
version 3 8
version 3 8
WARNING: Restart file version does not match LIGGGHTS version (../read_restart.cpp:507)
   --> restart file = Version LIGGGHTS-PUBLIC 3.8.0, compiled 2017-12-08-22:31:09 by hwb, git commit unknown
   --> LIGGGHTS = Version LIGGGHTS-PUBLIC 3.8.0, compiled 2017-12-08-22:42:34 by hwb, git commit unknown
version 3 8
WARNING: Restart file used different 3d processor grid (../read_restart.cpp:587)
  orthogonal box = (-0.05 -0.05 -0.01) to (0.05 0.05 0.5)
version 3 8
  2 by 2 by 1 MPI processor grid
  15278 atoms
INFO: mesh file (../DEM/STL/fluidizedbedriser1.stl) is required, but data will be taken from restart file (../fix_mesh.cpp:417)
Resetting global state of Fix fb1 Style mesh/surface from restart file info
INFO: mesh file (../DEM/STL/fluidizedbedriser2.stl) is required, but data will be taken from restart file (../fix_mesh.cpp:417)
Resetting global state of Fix fb2 Style mesh/surface from restart file info
INFO: mesh file (../DEM/STL/fluidizedbedBioin.stl) is required, but data will be taken from restart file (../fix_mesh.cpp:417)
Resetting global state of Fix fbBioin Style mesh/surface from restart file info
INFO: mesh file (../DEM/STL/fluidizedbedGasin.stl) is required, but data will be taken from restart file (../fix_mesh.cpp:417)
Resetting global state of Fix fbGasin Style mesh/surface from restart file info
INFO: mesh file (../DEM/STL/fluidizedbedOut.stl) is required, but data will be taken from restart file (../fix_mesh.cpp:417)
Resetting global state of Fix fbOut Style mesh/surface from restart file info
Resetting global state of Fix n_neighs_mesh_fb1 Style property/atom from restart file info
Resetting per-atom state of Fix n_neighs_mesh_fb1 Style property/atom from restart file info
Resetting global state of Fix tracker_fb1 Style contacthistory/mesh from restart file info
Resetting per-atom state of Fix tracker_fb1 Style contacthistory/mesh from restart file info
Resetting global state of Fix n_neighs_mesh_fb2 Style property/atom from restart file info
Resetting per-atom state of Fix n_neighs_mesh_fb2 Style property/atom from restart file info
Resetting global state of Fix tracker_fb2 Style contacthistory/mesh from restart file info
Resetting per-atom state of Fix tracker_fb2 Style contacthistory/mesh from restart file info
Resetting global state of Fix n_neighs_mesh_fbGasin Style property/atom from restart file info
Resetting per-atom state of Fix n_neighs_mesh_fbGasin Style property/atom from restart file info
Resetting global state of Fix tracker_fbGasin Style contacthistory/mesh from restart file info
Resetting per-atom state of Fix tracker_fbGasin Style contacthistory/mesh from restart file info
Resetting global state of Fix n_neighs_mesh_fbBioin Style property/atom from restart file info
Resetting per-atom state of Fix n_neighs_mesh_fbBioin Style property/atom from restart file info
Resetting global state of Fix tracker_fbBioin Style contacthistory/mesh from restart file info
Resetting per-atom state of Fix tracker_fbBioin Style contacthistory/mesh from restart file info
Fix particledistribution/discrete (id pdd2): distribution based on mass%:
    pts2: d=2.000000e-03 (max. bounding sphere) mass%=100.000000%
Fix particledistribution/discrete (id pdd2): distribution based on number%:
    pts2: d=2.000000e-03 (max. bounding sphere) number%=100.000000%
couple_every as specified in LIGGGHTS is overriden by calling external program (../fix_cfd_coupling.cpp:114)
WARNING: Changing thermo_temp compute object. This object is deprecated and will be removed in the future. (../compute.cpp:161)
Resetting global state of Fix contacthistory Style contacthistory from restart file info
Resetting per-atom state of Fix contacthistory Style contacthistory from restart file info
Setting up run at Mon Jul 27 07:12:58 2020

Import and parallelization of mesh fb1 containing 9645 triangle(s) successful
Import and parallelization of mesh fb2 containing 1950 triangle(s) successful
Import and parallelization of mesh fbBioin containing 105 triangle(s) successful
Import and parallelization of mesh fbGasin containing 2620 triangle(s) successful
Import and parallelization of mesh fbOut containing 10343 triangle(s) successful
INFO: Resetting random generator for region bc2
INFO: Particle insertion ins2: 125.648639 particles every 1000 steps - particle rate 12564.863928  (mass rate 1.000000e-02)
      12564 particles (mass 9.999312e-03) within 99000 steps
Memory usage per processor = 24.2074 Mbytes
    Step    Atoms         KinEng            rke         Volume       centerOf       dragtota       dragtota       dragtota 
  350000    15278  4.7485588e-10  5.0094675e-10         0.0051   0.0030943355              0              0              0 
Loop time of 2.86102e-06 on 4 procs for 0 steps with 15278 atoms, finish time Mon Jul 27 07:12:59 2020


Pair  time (%) = 0 (0)
Neigh time (%) = 0 (0)
Comm  time (%) = 0 (0)
Outpt time (%) = 0 (0)
Other time (%) = 2.86102e-06 (100)

Nlocal:    3819.5 ave 3850 max 3776 min
Histogram: 1 0 0 0 1 0 0 0 1 1
Nghost:    771 ave 783 max 766 min
Histogram: 2 1 0 0 0 0 0 0 0 1
Neighs:    27105.2 ave 27400 max 26830 min
Histogram: 1 0 0 0 2 0 0 0 0 1

Total # of neighbors = 108421
Ave neighs/atom = 7.09654
Neighbor list builds = 0
Dangerous builds = 0
--> FOAM Warning : You are using sub-time-steps (i.e. CFD TS < coupling time)! Check your settings properly.
Selecting IOModel basicIO
Selecting probeModel off
Selecting voidFractionModel divided
Selecting averagingModel dense
Selecting clockModel standardClock
start clock measurement at t >0.002
Selecting smoothingModel off
Selecting meshMotionModel noMeshMotion

CFDEMcoupling version: cfdem-3.8.1
, compatible to LIGGGHTS version: 3.8.0
, compatible to OF version and build: 5.x-commit-538044ac05c4672b37c7df607dca1116fa88df88

You are currently using:
OF version: 5.x
OF build: 5.x-197d9d3bf20a
CFDEM build: 

cg is set to: 1
LIGGGHTS hosts 2 atom types.
If BC are important, please provide volScalarFields -imp/expParticleForces-
ignoring ddt(voidfraction)
Selecting momCoupleModel implicitCouple

implicit momentum exchange field calculate if alphaP larger than : 1
Selecting forceModel KochHillDrag
 Selecting forceSubModel ImEx
 reading switches:
  looking for treatForceExplicit ...  not found in dict, using default. treatForceExplicit = false
  looking for implForceDEM ...  not found in dict, using default. implForceDEM = false
  looking for verbose ...  not found in dict, using default. verbose = false
  looking for interpolation ...  not found in dict, using default. interpolation = false
  looking for implForceDEMaccumulated ...  not found in dict, using default. implForceDEMaccumulated = false
  looking for scalarViscosity ...  not found in dict, using default. scalarViscosity = false

Selecting forceModel gradPForce
 Selecting forceSubModel ImEx
 reading switches:
  looking for treatForceExplicit ...  not found in dict, using default. treatForceExplicit = true
  looking for verbose ...  not found in dict, using default. verbose = false
  looking for interpolation ...  not found in dict, using default. interpolation = false

Selecting forceModel viscForce
 Selecting forceSubModel ImEx
 reading switches:
  looking for treatForceExplicit ...  not found in dict, using default. treatForceExplicit = true
  looking for verbose ...  not found in dict, using default. verbose = false
  looking for interpolation ...  found in dict. interpolation = true
  looking for scalarViscosity ...  not found in dict, using default. scalarViscosity = false

Selecting liggghtsCommandModel runLiggghts ,provide dicts, numbered from 0 to n
Selecting liggghtsCommandModel writeLiggghts ,provide dicts, numbered from 0 to n
writeLiggghts: A restart file writeName_write_restart ../DEM/post/restart/liggghts.restartCFDEM is written.
solving volume averaged Navier Stokes equations of type A
check if Archimedes lift is necessary (depends on pressure formulation)


Starting time loop

--> FOAM Warning : 
    From function void Foam::timeControl::read(const Foam::dictionary&)
    in file db/functionObjects/timeControl/timeControl.C at line 89
    Reading "/home/hwb/CFDEM/bubbling_fluidized_bed/fluidizedbedTest/CFD/system/controlDict.functions.probes" from line 59 to line 78
    Using deprecated 'outputControl'
    Please use 'writeControl' with 'writeInterval'
Time = 1e-05

Courant Number mean: 1.05859e-05 max: 0.011601

 Coupling...
Starting up LIGGGHTS
Executing command: 'run 100    '
Setting up run at Mon Jul 27 07:13:07 2020

Memory usage per processor = 24.2077 Mbytes
    Step    Atoms         KinEng            rke         Volume       centerOf       dragtota       dragtota       dragtota 
  350000    15278  4.7485588e-10  5.0094675e-10         0.0051   0.0030943355              0              0              0 
insertion: proc 2 at 0 %
insertion: proc 2 at 10 %
insertion: proc 3 at 0 %
insertion: proc 3 at 10 %
insertion: proc 3 at 20 %
insertion: proc 3 at 30 %
insertion: proc 3 at 40 %
insertion: proc 3 at 50 %
insertion: proc 3 at 60 %
insertion: proc 2 at 20 %
insertion: proc 2 at 30 %
insertion: proc 2 at 40 %
insertion: proc 2 at 50 %
insertion: proc 2 at 60 %
insertion: proc 2 at 70 %
insertion: proc 2 at 80 %
insertion: proc 3 at 70 %
insertion: proc 3 at 80 %
insertion: proc 3 at 90 %
insertion: proc 3 at 100 %
insertion: proc 2 at 90 %
insertion: proc 2 at 100 %
INFO: Particle insertion ins2: inserted 125 particle templates (mass 9.948377e-05) at step 350001
 - a total of 125 particle templates (mass 9.948377e-05) inserted so far.
CFD Coupling established at step 350100
  350100    15403    0.026255906    0.002302509         0.0051   0.0033095025              0              0              0 
Loop time of 1.92815 on 4 procs for 100 steps with 15403 atoms, finish time Mon Jul 27 07:13:09 2020


Pair  time (%) = 0.240347 (12.4652)
Neigh time (%) = 0.793421 (41.1493)
Comm  time (%) = 0.094151 (4.88297)
Outpt time (%) = 0.000276268 (0.0143281)
Other time (%) = 0.799955 (41.4882)

Nlocal:    3850.75 ave 3903 max 3815 min
Histogram: 1 1 0 0 1 0 0 0 0 1
Nghost:    778 ave 794 max 769 min
Histogram: 2 0 0 0 1 0 0 0 0 1
Neighs:    27112.5 ave 27401 max 26842 min
Histogram: 1 0 0 0 2 0 0 0 0 1

Total # of neighbors = 108450
Ave neighs/atom = 7.04084
Neighbor list builds = 100
Dangerous builds = 99
LIGGGHTS finished

 timeStepFraction() = 0.01

Solver level total Eulerian momentum exchange:
  TotalForceImp:  (-0.00117871 -7.57253e-05 -8.44931e-05)
  Warning, these values are based on latest Ksl and Us but prev. iteration U!

smoothSolver:  Solving for Ux, Initial residual = 1, Final residual = 8.20394e-06, No Iterations 1
smoothSolver:  Solving for Uy, Initial residual = 1, Final residual = 9.84081e-06, No Iterations 1
smoothSolver:  Solving for Uz, Initial residual = 1, Final residual = 5.35492e-08, No Iterations 2
DICPCG:  Solving for p, Initial residual = 1, Final residual = 0.0959008, No Iterations 441
DICPCG:  Solving for p, Initial residual = 0.0326348, Final residual = 0.000704433, No Iterations 2
time step continuity errors : sum local = 2.14147e-05, global = -1.83672e-08, cumulative = -1.83672e-08
DICPCG:  Solving for p, Initial residual = 0.00119898, Final residual = 0.000114785, No Iterations 392
DICPCG:  Solving for p, Initial residual = 0.00195463, Final residual = 6.6587e-05, No Iterations 2
time step continuity errors : sum local = 2.18973e-06, global = -2.54995e-09, cumulative = -2.09171e-08
DICPCG:  Solving for p, Initial residual = 9.28864e-05, Final residual = 8.49499e-06, No Iterations 385
DICPCG:  Solving for p, Initial residual = 0.000133004, Final residual = 5.07637e-06, No Iterations 2
time step continuity errors : sum local = 1.67712e-07, global = -1.00656e-09, cumulative = -2.19237e-08
DICPCG:  Solving for p, Initial residual = 6.83035e-06, Final residual = 9.39016e-07, No Iterations 377
DICPCG:  Solving for p, Initial residual = 9.82691e-06, Final residual = 5.38382e-07, No Iterations 2
time step continuity errors : sum local = 1.77923e-08, global = -2.32987e-10, cumulative = -2.21567e-08
ExecutionTime = 71.36 s  ClockTime = 71 s

Time = 2e-05

Courant Number mean: 0.00595989 max: 0.62106

 timeStepFraction() = 0.02

Solver level total Eulerian momentum exchange:
  TotalForceImp:  (-0.00478606 -0.000320028 -0.014056)
  Warning, these values are based on latest Ksl and Us but prev. iteration U!

smoothSolver:  Solving for Ux, Initial residual = 0.219523, Final residual = 3.71061e-07, No Iterations 2
smoothSolver:  Solving for Uy, Initial residual = 0.328521, Final residual = 1.13272e-07, No Iterations 2
smoothSolver:  Solving for Uz, Initial residual = 0.620496, Final residual = 3.64802e-08, No Iterations 2
DICPCG:  Solving for p, Initial residual = 0.0113244, Final residual = 0.00105512, No Iterations 410
DICPCG:  Solving for p, Initial residual = 0.498858, Final residual = 0.0132208, No Iterations 2
time step continuity errors : sum local = 2.70952e-05, global = -5.3114e-08, cumulative = -7.52706e-08
DICPCG:  Solving for p, Initial residual = 0.0371797, Final residual = 0.00362187, No Iterations 320
DICPCG:  Solving for p, Initial residual = 0.0590333, Final residual = 0.00264367, No Iterations 2
time step continuity errors : sum local = 2.81083e-06, global = 7.6762e-08, cumulative = 1.4914e-09
DICPCG:  Solving for p, Initial residual = 0.00368522, Final residual = 0.000365335, No Iterations 378
DICPCG:  Solving for p, Initial residual = 0.00419397, Final residual = 0.000239141, No Iterations 2
time step continuity errors : sum local = 2.83157e-07, global = -7.39532e-11, cumulative = 1.41745e-09
DICPCG:  Solving for p, Initial residual = 0.0003314, Final residual = 3.22587e-05, No Iterations 218
DICPCG:  Solving for p, Initial residual = 0.000279766, Final residual = 9.72349e-07, No Iterations 344
time step continuity errors : sum local = 1.15499e-09, global = 1.40867e-11, cumulative = 1.43154e-09
ExecutionTime = 119.57 s  ClockTime = 120 s

Time = 3e-05

Courant Number mean: 0.00633327 max: 0.564398

 timeStepFraction() = 0.03

Solver level total Eulerian momentum exchange:
  TotalForceImp:  (-0.0104256 -0.000661427 -0.0207636)
  Warning, these values are based on latest Ksl and Us but prev. iteration U!

smoothSolver:  Solving for Ux, Initial residual = 0.0173165, Final residual = 1.76109e-06, No Iterations 1
smoothSolver:  Solving for Uy, Initial residual = 0.0774843, Final residual = 6.25383e-06, No Iterations 1
smoothSolver:  Solving for Uz, Initial residual = 0.0395313, Final residual = 2.56304e-06, No Iterations 1
DICPCG:  Solving for p, Initial residual = 0.335719, Final residual = 0.00853418, No Iterations 2
DICPCG:  Solving for p, Initial residual = 0.0188883, Final residual = 0.00181923, No Iterations 385
time step continuity errors : sum local = 1.17402e-06, global = -1.28676e-09, cumulative = 1.44776e-10
DICPCG:  Solving for p, Initial residual = 0.185067, Final residual = 0.0053985, No Iterations 2
DICPCG:  Solving for p, Initial residual = 0.00946832, Final residual = 0.000884773, No Iterations 388
time step continuity errors : sum local = 1.01603e-07, global = -2.69017e-10, cumulative = -1.24241e-10
DICPCG:  Solving for p, Initial residual = 0.0129811, Final residual = 0.000491043, No Iterations 2
DICPCG:  Solving for p, Initial residual = 0.000674728, Final residual = 6.57404e-05, No Iterations 386
time step continuity errors : sum local = 7.91321e-09, global = -2.58504e-11, cumulative = -1.50092e-10
DICPCG:  Solving for p, Initial residual = 0.000816812, Final residual = 4.02434e-05, No Iterations 2
DICPCG:  Solving for p, Initial residual = 5.04907e-05, Final residual = 9.37575e-07, No Iterations 431
time step continuity errors : sum local = 1.14252e-10, global = -1.5541e-14, cumulative = -1.50107e-10
ExecutionTime = 165.36 s  ClockTime = 166 s

Time = 4e-05

Courant Number mean: 0.0063128 max: 0.53744

 timeStepFraction() = 0.04

Solver level total Eulerian momentum exchange:
  TotalForceImp:  (-0.0178928 -0.00110935 -0.0275124)
  Warning, these values are based on latest Ksl and Us but prev. iteration U!

smoothSolver:  Solving for Ux, Initial residual = 0.00306772, Final residual = 5.55579e-07, No Iterations 1
smoothSolver:  Solving for Uy, Initial residual = 0.0131716, Final residual = 2.4693e-06, No Iterations 1
smoothSolver:  Solving for Uz, Initial residual = 0.0015062, Final residual = 4.17488e-07, No Iterations 1
DICPCG:  Solving for p, Initial residual = 0.214214, Final residual = 0.0104438, No Iterations 2
DICPCG:  Solving for p, Initial residual = 0.0157796, Final residual = 0.00153078, No Iterations 47
time step continuity errors : sum local = 1.28526e-07, global = -2.52036e-09, cumulative = -2.67047e-09
DICPCG:  Solving for p, Initial residual = 0.00419235, Final residual = 0.000395237, No Iterations 55
DICPCG:  Solving for p, Initial residual = 0.00104282, Final residual = 0.00010131, No Iterations 175
time step continuity errors : sum local = 8.52396e-09, global = -8.30223e-10, cumulative = -3.50069e-09
DICPCG:  Solving for p, Initial residual = 0.000581238, Final residual = 5.7886e-05, No Iterations 279
DICPCG:  Solving for p, Initial residual = 0.00041634, Final residual = 2.93219e-05, No Iterations 2
time step continuity errors : sum local = 2.50625e-09, global = -2.34329e-10, cumulative = -3.73502e-09
DICPCG:  Solving for p, Initial residual = 3.55921e-05, Final residual = 3.49314e-06, No Iterations 384
DICPCG:  Solving for p, Initial residual = 4.99682e-05, Final residual = 9.81467e-07, No Iterations 108
time step continuity errors : sum local = 8.39896e-11, global = -2.91423e-12, cumulative = -3.73793e-09
ExecutionTime = 195.77 s  ClockTime = 196 s

Time = 5e-05

Courant Number mean: 0.0062985 max: 0.517795

 timeStepFraction() = 0.05

Solver level total Eulerian momentum exchange:
  TotalForceImp:  (-0.0269295 -0.00165414 -0.0340487)
  Warning, these values are based on latest Ksl and Us but prev. iteration U!

smoothSolver:  Solving for Ux, Initial residual = 0.0026947, Final residual = 4.71236e-07, No Iterations 1
smoothSolver:  Solving for Uy, Initial residual = 0.0108192, Final residual = 2.08586e-06, No Iterations 1
smoothSolver:  Solving for Uz, Initial residual = 0.001445, Final residual = 3.62907e-07, No Iterations 1
DICPCG:  Solving for p, Initial residual = 0.103522, Final residual = 0.00713357, No Iterations 2
DICPCG:  Solving for p, Initial residual = 0.00884312, Final residual = 0.000880728, No Iterations 51
time step continuity errors : sum local = 6.40969e-08, global = -3.36156e-10, cumulative = -4.07409e-09
DICPCG:  Solving for p, Initial residual = 0.00275721, Final residual = 0.000274461, No Iterations 33
DICPCG:  Solving for p, Initial residual = 0.000554139, Final residual = 5.21011e-05, No Iterations 100
time step continuity errors : sum local = 3.80467e-09, global = -5.02233e-10, cumulative = -4.57632e-09
DICPCG:  Solving for p, Initial residual = 0.000377079, Final residual = 3.41187e-05, No Iterations 2
DICPCG:  Solving for p, Initial residual = 3.83104e-05, Final residual = 3.60814e-06, No Iterations 393
time step continuity errors : sum local = 2.63568e-10, global = 2.94207e-13, cumulative = -4.57603e-09
DICPCG:  Solving for p, Initial residual = 0.000109614, Final residual = 5.4319e-06, No Iterations 2
DICPCG:  Solving for p, Initial residual = 6.8435e-06, Final residual = 9.82413e-07, No Iterations 115
time step continuity errors : sum local = 7.21336e-11, global = -8.59201e-12, cumulative = -4.58462e-09
ExecutionTime = 217.64 s  ClockTime = 218 s

Time = 6e-05

Courant Number mean: 0.00628757 max: 0.50433

 timeStepFraction() = 0.06

Solver level total Eulerian momentum exchange:
  TotalForceImp:  (-0.0372832 -0.00228862 -0.0403417)
  Warning, these values are based on latest Ksl and Us but prev. iteration U!

smoothSolver:  Solving for Ux, Initial residual = 0.00280373, Final residual = 4.29771e-07, No Iterations 1
smoothSolver:  Solving for Uy, Initial residual = 0.0104937, Final residual = 1.86427e-06, No Iterations 1
smoothSolver:  Solving for Uz, Initial residual = 0.00151862, Final residual = 3.34068e-07, No Iterations 1
DICPCG:  Solving for p, Initial residual = 0.0679113, Final residual = 0.0062418, No Iterations 2
DICPCG:  Solving for p, Initial residual = 0.00729945, Final residual = 0.000724525, No Iterations 52
time step continuity errors : sum local = 4.90362e-08, global = 1.42773e-10, cumulative = -4.44184e-09
DICPCG:  Solving for p, Initial residual = 0.00256638, Final residual = 0.000254752, No Iterations 31
DICPCG:  Solving for p, Initial residual = 0.000472305, Final residual = 4.3324e-05, No Iterations 93
time step continuity errors : sum local = 2.94046e-09, global = -4.0697e-12, cumulative = -4.44591e-09
DICPCG:  Solving for p, Initial residual = 0.000292893, Final residual = 2.64534e-05, No Iterations 6
DICPCG:  Solving for p, Initial residual = 3.14691e-05, Final residual = 3.04791e-06, No Iterations 388
time step continuity errors : sum local = 2.06867e-10, global = -1.68055e-13, cumulative = -4.44608e-09
DICPCG:  Solving for p, Initial residual = 4.58376e-05, Final residual = 1.99728e-06, No Iterations 2
DICPCG:  Solving for p, Initial residual = 2.58694e-06, Final residual = 9.90887e-07, No Iterations 49
time step continuity errors : sum local = 6.73003e-11, global = -9.992e-13, cumulative = -4.44708e-09
ExecutionTime = 237.18 s  ClockTime = 238 s

Time = 7e-05

Courant Number mean: 0.00627892 max: 0.493889

 timeStepFraction() = 0.07

Solver level total Eulerian momentum exchange:
  TotalForceImp:  (-0.0487219 -0.0030007 -0.0463728)
  Warning, these values are based on latest Ksl and Us but prev. iteration U!

smoothSolver:  Solving for Ux, Initial residual = 0.00306683, Final residual = 4.09482e-07, No Iterations 1
smoothSolver:  Solving for Uy, Initial residual = 0.0107756, Final residual = 1.70622e-06, No Iterations 1
smoothSolver:  Solving for Uz, Initial residual = 0.00164285, Final residual = 3.16725e-07, No Iterations 1
DICPCG:  Solving for p, Initial residual = 0.0533927, Final residual = 0.00471481, No Iterations 3
DICPCG:  Solving for p, Initial residual = 0.00565837, Final residual = 0.000536796, No Iterations 54
time step continuity errors : sum local = 3.50427e-08, global = 4.03271e-10, cumulative = -4.04381e-09
DICPCG:  Solving for p, Initial residual = 0.00230164, Final residual = 0.000225407, No Iterations 25
DICPCG:  Solving for p, Initial residual = 0.000388251, Final residual = 3.71285e-05, No Iterations 94
time step continuity errors : sum local = 2.42404e-09, global = 2.31266e-10, cumulative = -3.81254e-09
DICPCG:  Solving for p, Initial residual = 0.000256626, Final residual = 2.50605e-05, No Iterations 2
DICPCG:  Solving for p, Initial residual = 2.79374e-05, Final residual = 2.66679e-06, No Iterations 380
time step continuity errors : sum local = 1.74081e-10, global = -4.77305e-13, cumulative = -3.81302e-09
DICPCG:  Solving for p, Initial residual = 5.14865e-05, Final residual = 3.47716e-06, No Iterations 2
DICPCG:  Solving for p, Initial residual = 4.1289e-06, Final residual = 9.95546e-07, No Iterations 33
time step continuity errors : sum local = 6.4843e-11, global = 1.92083e-12, cumulative = -3.8111e-09
ExecutionTime = 255.81 s  ClockTime = 256 s

Time = 8e-05

Courant Number mean: 0.00627207 max: 0.48585

 timeStepFraction() = 0.08

Solver level total Eulerian momentum exchange:
  TotalForceImp:  (-0.0610225 -0.00377744 -0.0521335)
  Warning, these values are based on latest Ksl and Us but prev. iteration U!

smoothSolver:  Solving for Ux, Initial residual = 0.0033854, Final residual = 4.08986e-07, No Iterations 1
smoothSolver:  Solving for Uy, Initial residual = 0.0112933, Final residual = 1.60181e-06, No Iterations 1
smoothSolver:  Solving for Uz, Initial residual = 0.00178467, Final residual = 3.08519e-07, No Iterations 1
DICPCG:  Solving for p, Initial residual = 0.0465515, Final residual = 0.00463058, No Iterations 3
DICPCG:  Solving for p, Initial residual = 0.00546098, Final residual = 0.000531943, No Iterations 55
time step continuity errors : sum local = 3.40656e-08, global = 4.42744e-10, cumulative = -3.36836e-09
DICPCG:  Solving for p, Initial residual = 0.00235983, Final residual = 0.000224945, No Iterations 24
DICPCG:  Solving for p, Initial residual = 0.000383383, Final residual = 3.78766e-05, No Iterations 106
time step continuity errors : sum local = 2.42707e-09, global = 2.95332e-10, cumulative = -3.07302e-09
DICPCG:  Solving for p, Initial residual = 0.000232271, Final residual = 2.3216e-05, No Iterations 6
DICPCG:  Solving for p, Initial residual = 2.74184e-05, Final residual = 2.68863e-06, No Iterations 401
time step continuity errors : sum local = 1.7224e-10, global = -1.37613e-13, cumulative = -3.07316e-09
DICPCG:  Solving for p, Initial residual = 8.00304e-05, Final residual = 3.95098e-06, No Iterations 2
DICPCG:  Solving for p, Initial residual = 4.97981e-06, Final residual = 9.9024e-07, No Iterations 94
time step continuity errors : sum local = 6.32151e-11, global = 4.52561e-12, cumulative = -3.06864e-09
ExecutionTime = 277.47 s  ClockTime = 278 s

Time = 9e-05

Courant Number mean: 0.00626685 max: 0.479436

 timeStepFraction() = 0.09

Solver level total Eulerian momentum exchange:
  TotalForceImp:  (-0.073985 -0.00461138 -0.0576219)
  Warning, these values are based on latest Ksl and Us but prev. iteration U!

smoothSolver:  Solving for Ux, Initial residual = 0.0037518, Final residual = 4.27887e-07, No Iterations 1
smoothSolver:  Solving for Uy, Initial residual = 0.0119575, Final residual = 1.54496e-06, No Iterations 1
smoothSolver:  Solving for Uz, Initial residual = 0.00194094, Final residual = 3.08802e-07, No Iterations 1
DICPCG:  Solving for p, Initial residual = 0.0430238, Final residual = 0.00400728, No Iterations 4
DICPCG:  Solving for p, Initial residual = 0.00505615, Final residual = 0.000483753, No Iterations 57
time step continuity errors : sum local = 3.08304e-08, global = 4.17684e-10, cumulative = -2.65095e-09
DICPCG:  Solving for p, Initial residual = 0.00238215, Final residual = 0.000223327, No Iterations 24
DICPCG:  Solving for p, Initial residual = 0.000374993, Final residual = 3.7383e-05, No Iterations 104
time step continuity errors : sum local = 2.38471e-09, global = 3.00195e-10, cumulative = -2.35076e-09
DICPCG:  Solving for p, Initial residual = 0.000206831, Final residual = 2.04529e-05, No Iterations 310
DICPCG:  Solving for p, Initial residual = 0.000108832, Final residual = 1.05626e-05, No Iterations 20
time step continuity errors : sum local = 6.71053e-10, global = 1.07874e-11, cumulative = -2.33997e-09
DICPCG:  Solving for p, Initial residual = 1.70195e-05, Final residual = 1.70077e-06, No Iterations 173
DICPCG:  Solving for p, Initial residual = 1.02107e-05, Final residual = 9.83741e-07, No Iterations 220
time step continuity errors : sum local = 6.24964e-11, global = -6.80915e-13, cumulative = -2.34065e-09
ExecutionTime = 304.11 s  ClockTime = 305 s

Time = 0.0001

Courant Number mean: 0.00626332 max: 0.474252

 timeStepFraction() = 0.1

Solver level total Eulerian momentum exchange:
  TotalForceImp:  (-0.0874426 -0.00548841 -0.0628478)
  Warning, these values are based on latest Ksl and Us but prev. iteration U!

smoothSolver:  Solving for Ux, Initial residual = 0.00415672, Final residual = 4.71249e-07, No Iterations 1
smoothSolver:  Solving for Uy, Initial residual = 0.0127435, Final residual = 1.53864e-06, No Iterations 1
smoothSolver:  Solving for Uz, Initial residual = 0.00211192, Final residual = 3.19978e-07, No Iterations 1
DICPCG:  Solving for p, Initial residual = 0.0406446, Final residual = 0.00391483, No Iterations 4
DICPCG:  Solving for p, Initial residual = 0.00493845, Final residual = 0.000468469, No Iterations 57
time step continuity errors : sum local = 2.99868e-08, global = 3.77349e-10, cumulative = -1.9633e-09
DICPCG:  Solving for p, Initial residual = 0.00232792, Final residual = 0.000228878, No Iterations 23
DICPCG:  Solving for p, Initial residual = 0.000366269, Final residual = 3.54499e-05, No Iterations 104
time step continuity errors : sum local = 2.27171e-09, global = 2.76853e-10, cumulative = -1.68645e-09
DICPCG:  Solving for p, Initial residual = 0.000196548, Final residual = 1.92633e-05, No Iterations 244
DICPCG:  Solving for p, Initial residual = 0.000109481, Final residual = 1.08525e-05, No Iterations 9
time step continuity errors : sum local = 6.92637e-10, global = -1.08234e-11, cumulative = -1.69727e-09
DICPCG:  Solving for p, Initial residual = 1.48945e-05, Final residual = 1.48867e-06, No Iterations 187
DICPCG:  Solving for p, Initial residual = 1.9405e-05, Final residual = 9.76752e-07, No Iterations 2
time step continuity errors : sum local = 6.23393e-11, global = 1.32497e-11, cumulative = -1.68402e-09
ExecutionTime = 324.65 s  ClockTime = 325 s

Time = 0.00011

Courant Number mean: 0.00626152 max: 0.469656

 timeStepFraction() = 0.11

Solver level total Eulerian momentum exchange:
  TotalForceImp:  (-0.101237 -0.0064011 -0.0678269)
  Warning, these values are based on latest Ksl and Us but prev. iteration U!

smoothSolver:  Solving for Ux, Initial residual = 0.00456589, Final residual = 5.34488e-07, No Iterations 1
smoothSolver:  Solving for Uy, Initial residual = 0.0135331, Final residual = 1.57122e-06, No Iterations 1
smoothSolver:  Solving for Uz, Initial residual = 0.00228609, Final residual = 3.38236e-07, No Iterations 1
DICPCG:  Solving for p, Initial residual = 0.0392643, Final residual = 0.00388793, No Iterations 4
DICPCG:  Solving for p, Initial residual = 0.00487178, Final residual = 0.000475359, No Iterations 58
time step continuity errors : sum local = 3.08114e-08, global = 3.68691e-10, cumulative = -1.31533e-09
DICPCG:  Solving for p, Initial residual = 0.00238678, Final residual = 0.00022876, No Iterations 23
DICPCG:  Solving for p, Initial residual = 0.000367887, Final residual = 3.44969e-05, No Iterations 79
time step continuity errors : sum local = 2.23903e-09, global = 3.20141e-10, cumulative = -9.9519e-10
DICPCG:  Solving for p, Initial residual = 0.000173947, Final residual = 1.73934e-05, No Iterations 270
DICPCG:  Solving for p, Initial residual = 0.000134936, Final residual = 1.05963e-05, No Iterations 2
time step continuity errors : sum local = 6.84718e-10, global = 2.95509e-12, cumulative = -9.92235e-10
DICPCG:  Solving for p, Initial residual = 1.32183e-05, Final residual = 1.30689e-06, No Iterations 402
DICPCG:  Solving for p, Initial residual = 1.28377e-05, Final residual = 9.13656e-07, No Iterations 2
time step continuity errors : sum local = 5.90274e-11, global = 1.42528e-13, cumulative = -9.92092e-10
ExecutionTime = 351.16 s  ClockTime = 352 s

Time = 0.00012

Courant Number mean: 0.00626145 max: 0.465793

 timeStepFraction() = 0.12

Solver level total Eulerian momentum exchange:
  TotalForceImp:  (-0.115247 -0.00734114 -0.0725828)
  Warning, these values are based on latest Ksl and Us but prev. iteration U!

smoothSolver:  Solving for Ux, Initial residual = 0.004991, Final residual = 6.17011e-07, No Iterations 1
smoothSolver:  Solving for Uy, Initial residual = 0.0143687, Final residual = 1.65179e-06, No Iterations 1
smoothSolver:  Solving for Uz, Initial residual = 0.00246777, Final residual = 3.62825e-07, No Iterations 1
DICPCG:  Solving for p, Initial residual = 0.0377835, Final residual = 0.00333692, No Iterations 5
DICPCG:  Solving for p, Initial residual = 0.00443206, Final residual = 0.000431634, No Iterations 57
time step continuity errors : sum local = 2.84428e-08, global = 3.11685e-10, cumulative = -6.80407e-10
DICPCG:  Solving for p, Initial residual = 0.00223222, Final residual = 0.000205531, No Iterations 23
DICPCG:  Solving for p, Initial residual = 0.000341587, Final residual = 3.41387e-05, No Iterations 132
time step continuity errors : sum local = 2.25252e-09, global = 2.03899e-10, cumulative = -4.76508e-10
DICPCG:  Solving for p, Initial residual = 0.000212173, Final residual = 2.10241e-05, No Iterations 313
DICPCG:  Solving for p, Initial residual = 0.000136921, Final residual = 1.20532e-05, No Iterations 2
time step continuity errors : sum local = 7.92057e-10, global = 9.85343e-12, cumulative = -4.66655e-10
DICPCG:  Solving for p, Initial residual = 1.41218e-05, Final residual = 1.37189e-06, No Iterations 398
DICPCG:  Solving for p, Initial residual = 1.56311e-05, Final residual = 8.97178e-07, No Iterations 2
time step continuity errors : sum local = 5.89418e-11, global = 3.29368e-14, cumulative = -4.66622e-10
ExecutionTime = 380.42 s  ClockTime = 381 s

Time = 0.00013

Courant Number mean: 0.00626313 max: 0.462513

 timeStepFraction() = 0.13

Solver level total Eulerian momentum exchange:
  TotalForceImp:  (-0.129359 -0.00830274 -0.0771248)
  Warning, these values are based on latest Ksl and Us but prev. iteration U!

smoothSolver:  Solving for Ux, Initial residual = 0.00540899, Final residual = 7.17032e-07, No Iterations 1
smoothSolver:  Solving for Uy, Initial residual = 0.0151501, Final residual = 1.77072e-06, No Iterations 1
smoothSolver:  Solving for Uz, Initial residual = 0.00264625, Final residual = 3.93661e-07, No Iterations 1
DICPCG:  Solving for p, Initial residual = 0.0365879, Final residual = 0.003254, No Iterations 5
DICPCG:  Solving for p, Initial residual = 0.00430472, Final residual = 0.000424982, No Iterations 57
time step continuity errors : sum local = 2.85856e-08, global = 2.78675e-10, cumulative = -1.87947e-10
DICPCG:  Solving for p, Initial residual = 0.00217105, Final residual = 0.000201264, No Iterations 23
DICPCG:  Solving for p, Initial residual = 0.000335653, Final residual = 3.30663e-05, No Iterations 140
time step continuity errors : sum local = 2.227e-09, global = 1.87779e-10, cumulative = -1.67491e-13
DICPCG:  Solving for p, Initial residual = 0.00022982, Final residual = 2.2334e-05, No Iterations 2
DICPCG:  Solving for p, Initial residual = 2.48805e-05, Final residual = 2.38755e-06, No Iterations 403
time step continuity errors : sum local = 1.60741e-10, global = 4.00384e-13, cumulative = 2.32893e-13
DICPCG:  Solving for p, Initial residual = 0.000132806, Final residual = 3.37911e-06, No Iterations 2
DICPCG:  Solving for p, Initial residual = 5.39744e-06, Final residual = 9.82948e-07, No Iterations 358
time step continuity errors : sum local = 6.59177e-11, global = 2.36102e-13, cumulative = 4.68995e-13
ExecutionTime = 413.66 s  ClockTime = 415 s

Time = 0.00014

Courant Number mean: 0.00626652 max: 0.461775

 timeStepFraction() = 0.14

Solver level total Eulerian momentum exchange:
  TotalForceImp:  (-0.143489 -0.00927925 -0.0814668)
  Warning, these values are based on latest Ksl and Us but prev. iteration U!

smoothSolver:  Solving for Ux, Initial residual = 0.00581568, Final residual = 8.36548e-07, No Iterations 1
smoothSolver:  Solving for Uy, Initial residual = 0.0158858, Final residual = 1.93056e-06, No Iterations 1
smoothSolver:  Solving for Uz, Initial residual = 0.00282247, Final residual = 4.30061e-07, No Iterations 1
DICPCG:  Solving for p, Initial residual = 0.0353896, Final residual = 0.00321533, No Iterations 5
DICPCG:  Solving for p, Initial residual = 0.00420867, Final residual = 0.000419169, No Iterations 57
time step continuity errors : sum local = 2.88231e-08, global = 2.82304e-10, cumulative = 2.82773e-10
DICPCG:  Solving for p, Initial residual = 0.00208363, Final residual = 0.000207595, No Iterations 23
DICPCG:  Solving for p, Initial residual = 0.000340321, Final residual = 3.37937e-05, No Iterations 394
time step continuity errors : sum local = 2.32661e-09, global = 4.72996e-12, cumulative = 2.87503e-10
DICPCG:  Solving for p, Initial residual = 0.000298789, Final residual = 2.24225e-05, No Iterations 2
DICPCG:  Solving for p, Initial residual = 2.59663e-05, Final residual = 2.51958e-06, No Iterations 235
time step continuity errors : sum local = 1.72603e-10, global = 1.60765e-11, cumulative = 3.03579e-10
DICPCG:  Solving for p, Initial residual = 2.18918e-05, Final residual = 1.73891e-06, No Iterations 2
DICPCG:  Solving for p, Initial residual = 2.0326e-06, Final residual = 9.8626e-07, No Iterations 243
time step continuity errors : sum local = 6.75601e-11, global = -1.02682e-12, cumulative = 3.02553e-10
ExecutionTime = 443.21 s  ClockTime = 444 s

Time = 0.00015

Courant Number mean: 0.0062715 max: 0.461912

 timeStepFraction() = 0.15

Solver level total Eulerian momentum exchange:
  TotalForceImp:  (-0.157575 -0.0102687 -0.0856202)
  Warning, these values are based on latest Ksl and Us but prev. iteration U!

smoothSolver:  Solving for Ux, Initial residual = 0.00620904, Final residual = 9.72638e-07, No Iterations 1
smoothSolver:  Solving for Uy, Initial residual = 0.0165582, Final residual = 2.12871e-06, No Iterations 1
smoothSolver:  Solving for Uz, Initial residual = 0.00298701, Final residual = 4.7044e-07, No Iterations 1
DICPCG:  Solving for p, Initial residual = 0.0347237, Final residual = 0.00308176, No Iterations 5
DICPCG:  Solving for p, Initial residual = 0.00402712, Final residual = 0.000390659, No Iterations 58
time step continuity errors : sum local = 2.74933e-08, global = 2.26892e-10, cumulative = 5.29444e-10
DICPCG:  Solving for p, Initial residual = 0.00198187, Final residual = 0.0001966, No Iterations 20
DICPCG:  Solving for p, Initial residual = 0.000310282, Final residual = 3.0664e-05, No Iterations 267
time step continuity errors : sum local = 2.16092e-09, global = 3.21516e-10, cumulative = 8.5096e-10
DICPCG:  Solving for p, Initial residual = 0.000242791, Final residual = 2.05544e-05, No Iterations 2
DICPCG:  Solving for p, Initial residual = 2.35401e-05, Final residual = 2.29048e-06, No Iterations 378
time step continuity errors : sum local = 1.61219e-10, global = 9.67901e-13, cumulative = 8.51928e-10
DICPCG:  Solving for p, Initial residual = 7.91057e-05, Final residual = 3.96391e-06, No Iterations 2
DICPCG:  Solving for p, Initial residual = 4.9951e-06, Final residual = 9.56467e-07, No Iterations 87
time step continuity errors : sum local = 6.70965e-11, global = 5.11502e-12, cumulative = 8.57043e-10
ExecutionTime = 468.14 s  ClockTime = 469 s

Time = 0.00016

Courant Number mean: 0.00627808 max: 0.46196

 timeStepFraction() = 0.16

Solver level total Eulerian momentum exchange:
  TotalForceImp:  (-0.171558 -0.0112618 -0.0896193)
  Warning, these values are based on latest Ksl and Us but prev. iteration U!

smoothSolver:  Solving for Ux, Initial residual = 0.00659562, Final residual = 1.12659e-06, No Iterations 1
smoothSolver:  Solving for Uy, Initial residual = 0.0171781, Final residual = 2.36229e-06, No Iterations 1
smoothSolver:  Solving for Uz, Initial residual = 0.00314875, Final residual = 5.17571e-07, No Iterations 1
DICPCG:  Solving for p, Initial residual = 0.0338343, Final residual = 0.00301063, No Iterations 5
DICPCG:  Solving for p, Initial residual = 0.00392843, Final residual = 0.000392667, No Iterations 58
time step continuity errors : sum local = 2.83614e-08, global = 2.16691e-10, cumulative = 1.07373e-09
DICPCG:  Solving for p, Initial residual = 0.00194722, Final residual = 0.000186006, No Iterations 20
DICPCG:  Solving for p, Initial residual = 0.000300235, Final residual = 2.98059e-05, No Iterations 399
time step continuity errors : sum local = 2.15574e-09, global = 3.83972e-12, cumulative = 1.07757e-09
DICPCG:  Solving for p, Initial residual = 0.000253461, Final residual = 2.12671e-05, No Iterations 2
DICPCG:  Solving for p, Initial residual = 2.42753e-05, Final residual = 2.41375e-06, No Iterations 238
time step continuity errors : sum local = 1.73896e-10, global = 1.59862e-11, cumulative = 1.09356e-09
DICPCG:  Solving for p, Initial residual = 1.98686e-05, Final residual = 1.71987e-06, No Iterations 2
DICPCG:  Solving for p, Initial residual = 1.98558e-06, Final residual = 9.85628e-07, No Iterations 314
time step continuity errors : sum local = 7.10051e-11, global = 3.46766e-13, cumulative = 1.09391e-09
ExecutionTime = 498.5 s  ClockTime = 500 s

Time = 0.00017

Courant Number mean: 0.00628636 max: 0.477704

 timeStepFraction() = 0.17

Solver level total Eulerian momentum exchange:
  TotalForceImp:  (-0.185394 -0.0122605 -0.0935005)
  Warning, these values are based on latest Ksl and Us but prev. iteration U!

smoothSolver:  Solving for Ux, Initial residual = 0.00696878, Final residual = 1.30148e-06, No Iterations 1
smoothSolver:  Solving for Uy, Initial residual = 0.0177501, Final residual = 2.62434e-06, No Iterations 1
smoothSolver:  Solving for Uz, Initial residual = 0.00330954, Final residual = 5.70008e-07, No Iterations 1
DICPCG:  Solving for p, Initial residual = 0.0325397, Final residual = 0.00298175, No Iterations 5
DICPCG:  Solving for p, Initial residual = 0.0038652, Final residual = 0.000381122, No Iterations 59
time step continuity errors : sum local = 2.82472e-08, global = 1.81356e-10, cumulative = 1.27526e-09
DICPCG:  Solving for p, Initial residual = 0.00190229, Final residual = 0.000181528, No Iterations 19
DICPCG:  Solving for p, Initial residual = 0.000287011, Final residual = 2.85743e-05, No Iterations 271
time step continuity errors : sum local = 2.1207e-09, global = 2.58603e-10, cumulative = 1.53387e-09
DICPCG:  Solving for p, Initial residual = 0.00021046, Final residual = 1.98248e-05, No Iterations 2
DICPCG:  Solving for p, Initial residual = 2.23803e-05, Final residual = 2.15062e-06, No Iterations 406
time step continuity errors : sum local = 1.5946e-10, global = 5.62025e-13, cumulative = 1.53443e-09
DICPCG:  Solving for p, Initial residual = 6.61947e-05, Final residual = 3.28964e-06, No Iterations 2
DICPCG:  Solving for p, Initial residual = 4.14397e-06, Final residual = 9.70782e-07, No Iterations 37
time step continuity errors : sum local = 7.17877e-11, global = 4.04096e-12, cumulative = 1.53847e-09
ExecutionTime = 523.02 s  ClockTime = 524 s

Time = 0.00018

Courant Number mean: 0.00629636 max: 0.524842

 timeStepFraction() = 0.18

Solver level total Eulerian momentum exchange:
  TotalForceImp:  (-0.199045 -0.0132592 -0.0972814)
  Warning, these values are based on latest Ksl and Us but prev. iteration U!

smoothSolver:  Solving for Ux, Initial residual = 0.0073319, Final residual = 1.49181e-06, No Iterations 1
smoothSolver:  Solving for Uy, Initial residual = 0.0182436, Final residual = 2.90782e-06, No Iterations 1
smoothSolver:  Solving for Uz, Initial residual = 0.00346436, Final residual = 6.27953e-07, No Iterations 1
DICPCG:  Solving for p, Initial residual = 0.0315972, Final residual = 0.0029235, No Iterations 5
DICPCG:  Solving for p, Initial residual = 0.00377315, Final residual = 0.00037227, No Iterations 58
time step continuity errors : sum local = 2.83401e-08, global = 1.78002e-10, cumulative = 1.71647e-09
DICPCG:  Solving for p, Initial residual = 0.00182568, Final residual = 0.000171199, No Iterations 20
DICPCG:  Solving for p, Initial residual = 0.000281178, Final residual = 2.79084e-05, No Iterations 270
time step continuity errors : sum local = 2.1276e-09, global = 2.63295e-10, cumulative = 1.97976e-09
DICPCG:  Solving for p, Initial residual = 0.000197988, Final residual = 1.96699e-05, No Iterations 2
DICPCG:  Solving for p, Initial residual = 2.20355e-05, Final residual = 2.15042e-06, No Iterations 380
time step continuity errors : sum local = 1.6378e-10, global = 9.23046e-13, cumulative = 1.98069e-09
DICPCG:  Solving for p, Initial residual = 6.16651e-05, Final residual = 3.23436e-06, No Iterations 2
DICPCG:  Solving for p, Initial residual = 4.02114e-06, Final residual = 9.90099e-07, No Iterations 64
time step continuity errors : sum local = 7.52142e-11, global = 4.7559e-12, cumulative = 1.98544e-09
ExecutionTime = 547.8 s  ClockTime = 549 s

Time = 0.00019

Courant Number mean: 0.00630812 max: 0.572411

 timeStepFraction() = 0.19

Solver level total Eulerian momentum exchange:
  TotalForceImp:  (-0.212478 -0.014244 -0.100985)
  Warning, these values are based on latest Ksl and Us but prev. iteration U!

smoothSolver:  Solving for Ux, Initial residual = 0.00767149, Final residual = 1.70477e-06, No Iterations 1
smoothSolver:  Solving for Uy, Initial residual = 0.0186904, Final residual = 3.23097e-06, No Iterations 1
smoothSolver:  Solving for Uz, Initial residual = 0.00361594, Final residual = 6.92466e-07, No Iterations 1
DICPCG:  Solving for p, Initial residual = 0.030511, Final residual = 0.0028064, No Iterations 5
DICPCG:  Solving for p, Initial residual = 0.00359966, Final residual = 0.00035403, No Iterations 58
time step continuity errors : sum local = 2.7682e-08, global = 1.57473e-10, cumulative = 2.14292e-09
DICPCG:  Solving for p, Initial residual = 0.00173954, Final residual = 0.000166755, No Iterations 20
DICPCG:  Solving for p, Initial residual = 0.00027164, Final residual = 2.64193e-05, No Iterations 262
time step continuity errors : sum local = 2.06835e-09, global = 2.74544e-10, cumulative = 2.41746e-09
DICPCG:  Solving for p, Initial residual = 0.000205086, Final residual = 1.77621e-05, No Iterations 2
DICPCG:  Solving for p, Initial residual = 2.03404e-05, Final residual = 2.03229e-06, No Iterations 398
time step continuity errors : sum local = 1.58981e-10, global = -3.35375e-13, cumulative = 2.41713e-09
DICPCG:  Solving for p, Initial residual = 6.68006e-05, Final residual = 3.24906e-06, No Iterations 2
DICPCG:  Solving for p, Initial residual = 4.12014e-06, Final residual = 9.96419e-07, No Iterations 27
time step continuity errors : sum local = 7.77348e-11, global = 4.70766e-12, cumulative = 2.42183e-09
ExecutionTime = 571.39 s  ClockTime = 573 s

Time = 0.0002

Courant Number mean: 0.00632147 max: 0.620137

 timeStepFraction() = 0.2

Solver level total Eulerian momentum exchange:
  TotalForceImp:  (-0.22568 -0.0152245 -0.104623)
  Warning, these values are based on latest Ksl and Us but prev. iteration U!

smoothSolver:  Solving for Ux, Initial residual = 0.00798125, Final residual = 1.93549e-06, No Iterations 1
smoothSolver:  Solving for Uy, Initial residual = 0.0190271, Final residual = 3.56847e-06, No Iterations 1
smoothSolver:  Solving for Uz, Initial residual = 0.00375463, Final residual = 7.61998e-07, No Iterations 1
DICPCG:  Solving for p, Initial residual = 0.0295648, Final residual = 0.00276294, No Iterations 5
DICPCG:  Solving for p, Initial residual = 0.00357752, Final residual = 0.000354035, No Iterations 58
time step continuity errors : sum local = 2.84149e-08, global = 1.05602e-10, cumulative = 2.52744e-09
DICPCG:  Solving for p, Initial residual = 0.00170772, Final residual = 0.000166708, No Iterations 19
DICPCG:  Solving for p, Initial residual = 0.000266857, Final residual = 2.64648e-05, No Iterations 127
time step continuity errors : sum local = 2.127e-09, global = 9.39949e-11, cumulative = 2.62143e-09
DICPCG:  Solving for p, Initial residual = 0.000168763, Final residual = 1.67694e-05, No Iterations 10
DICPCG:  Solving for p, Initial residual = 2.12123e-05, Final residual = 2.07716e-06, No Iterations 396
time step continuity errors : sum local = 1.66922e-10, global = -6.48324e-15, cumulative = 2.62142e-09
DICPCG:  Solving for p, Initial residual = 7.61081e-05, Final residual = 2.06288e-06, No Iterations 2
DICPCG:  Solving for p, Initial residual = 3.19437e-06, Final residual = 9.45912e-07, No Iterations 360
time step continuity errors : sum local = 7.58599e-11, global = 1.43738e-13, cumulative = 2.62157e-09
ExecutionTime = 600.18 s  ClockTime = 602 s

Time = 0.00021

Courant Number mean: 0.00633647 max: 0.667982

 timeStepFraction() = 0.21

Solver level total Eulerian momentum exchange:
  TotalForceImp:  (-0.238641 -0.0161877 -0.108226)
  Warning, these values are based on latest Ksl and Us but prev. iteration U!

smoothSolver:  Solving for Ux, Initial residual = 0.00827452, Final residual = 2.18625e-06, No Iterations 1
smoothSolver:  Solving for Uy, Initial residual = 0.01933, Final residual = 3.92851e-06, No Iterations 1
smoothSolver:  Solving for Uz, Initial residual = 0.00389678, Final residual = 8.38895e-07, No Iterations 1
DICPCG:  Solving for p, Initial residual = 0.0284092, Final residual = 0.00269511, No Iterations 5
DICPCG:  Solving for p, Initial residual = 0.00345269, Final residual = 0.000331843, No Iterations 59
time step continuity errors : sum local = 2.73658e-08, global = 1.62927e-10, cumulative = 2.78449e-09
DICPCG:  Solving for p, Initial residual = 0.00163022, Final residual = 0.000154383, No Iterations 19
DICPCG:  Solving for p, Initial residual = 0.000249002, Final residual = 2.48489e-05, No Iterations 267
time step continuity errors : sum local = 2.05183e-09, global = 2.8011e-10, cumulative = 3.0646e-09
DICPCG:  Solving for p, Initial residual = 0.000188868, Final residual = 1.75055e-05, No Iterations 2
DICPCG:  Solving for p, Initial residual = 1.98088e-05, Final residual = 1.84287e-06, No Iterations 358
time step continuity errors : sum local = 1.52038e-10, global = -3.02064e-13, cumulative = 3.0643e-09
DICPCG:  Solving for p, Initial residual = 6.05691e-05, Final residual = 3.19444e-06, No Iterations 2
DICPCG:  Solving for p, Initial residual = 3.96324e-06, Final residual = 9.34026e-07, No Iterations 38
time step continuity errors : sum local = 7.68634e-11, global = 4.53737e-12, cumulative = 3.06884e-09
ExecutionTime = 623.18 s  ClockTime = 625 s

Time = 0.00022

Courant Number mean: 0.00635305 max: 0.71582

 timeStepFraction() = 0.22

Solver level total Eulerian momentum exchange:
  TotalForceImp:  (-0.251347 -0.0171259 -0.1118)
  Warning, these values are based on latest Ksl and Us but prev. iteration U!

smoothSolver:  Solving for Ux, Initial residual = 0.00854298, Final residual = 2.4502e-06, No Iterations 1
smoothSolver:  Solving for Uy, Initial residual = 0.0195402, Final residual = 4.29726e-06, No Iterations 1
smoothSolver:  Solving for Uz, Initial residual = 0.00402442, Final residual = 9.15961e-07, No Iterations 1
DICPCG:  Solving for p, Initial residual = 0.0276775, Final residual = 0.00263977, No Iterations 5
DICPCG:  Solving for p, Initial residual = 0.00339782, Final residual = 0.00033068, No Iterations 58
time step continuity errors : sum local = 2.79852e-08, global = 1.2755e-10, cumulative = 3.19639e-09
DICPCG:  Solving for p, Initial residual = 0.00158162, Final residual = 0.000153853, No Iterations 19
DICPCG:  Solving for p, Initial residual = 0.000248657, Final residual = 2.46322e-05, No Iterations 261
time step continuity errors : sum local = 2.08728e-09, global = 2.38429e-10, cumulative = 3.43482e-09
DICPCG:  Solving for p, Initial residual = 0.000176034, Final residual = 1.72759e-05, No Iterations 2
DICPCG:  Solving for p, Initial residual = 1.94167e-05, Final residual = 1.81803e-06, No Iterations 382
time step continuity errors : sum local = 1.5396e-10, global = 4.95316e-13, cumulative = 3.43531e-09
DICPCG:  Solving for p, Initial residual = 5.54063e-05, Final residual = 2.77727e-06, No Iterations 2
DICPCG:  Solving for p, Initial residual = 3.49291e-06, Final residual = 9.76803e-07, No Iterations 18
time step continuity errors : sum local = 8.25371e-11, global = 4.39605e-12, cumulative = 3.43971e-09
ExecutionTime = 646.33 s  ClockTime = 648 s

Time = 0.00023

Courant Number mean: 0.00637114 max: 0.763646

 timeStepFraction() = 0.23

Solver level total Eulerian momentum exchange:
  TotalForceImp:  (-0.263792 -0.0180437 -0.115357)
  Warning, these values are based on latest Ksl and Us but prev. iteration U!

smoothSolver:  Solving for Ux, Initial residual = 0.00878551, Final residual = 2.73135e-06, No Iterations 1
smoothSolver:  Solving for Uy, Initial residual = 0.0196895, Final residual = 4.68202e-06, No Iterations 1
smoothSolver:  Solving for Uz, Initial residual = 0.00414534, Final residual = 9.99331e-07, No Iterations 1
DICPCG:  Solving for p, Initial residual = 0.0265897, Final residual = 0.00256518, No Iterations 5
DICPCG:  Solving for p, Initial residual = 0.00326482, Final residual = 0.000312981, No Iterations 59
time step continuity errors : sum local = 2.71858e-08, global = 1.1264e-10, cumulative = 3.55235e-09
DICPCG:  Solving for p, Initial residual = 0.00149277, Final residual = 0.00014835, No Iterations 18
DICPCG:  Solving for p, Initial residual = 0.000233689, Final residual = 2.26551e-05, No Iterations 198
time step continuity errors : sum local = 1.97023e-09, global = 1.49377e-10, cumulative = 3.70173e-09
DICPCG:  Solving for p, Initial residual = 0.000157204, Final residual = 1.55312e-05, No Iterations 3
DICPCG:  Solving for p, Initial residual = 1.67028e-05, Final residual = 1.59677e-06, No Iterations 382
time step continuity errors : sum local = 1.38824e-10, global = 3.61448e-13, cumulative = 3.70209e-09
DICPCG:  Solving for p, Initial residual = 6.4794e-05, Final residual = 2.10329e-06, No Iterations 2
DICPCG:  Solving for p, Initial residual = 3.02344e-06, Final residual = 9.84597e-07, No Iterations 93
time step continuity errors : sum local = 8.54263e-11, global = 6.07803e-12, cumulative = 3.70817e-09
ExecutionTime = 669.78 s  ClockTime = 671 s

Time = 0.00024

Courant Number mean: 0.0063908 max: 0.811306

 timeStepFraction() = 0.24

Solver level total Eulerian momentum exchange:
  TotalForceImp:  (-0.275977 -0.0189412 -0.118925)
  Warning, these values are based on latest Ksl and Us but prev. iteration U!

smoothSolver:  Solving for Ux, Initial residual = 0.00900763, Final residual = 3.0271e-06, No Iterations 1
smoothSolver:  Solving for Uy, Initial residual = 0.0197866, Final residual = 5.07487e-06, No Iterations 1
smoothSolver:  Solving for Uz, Initial residual = 0.00425896, Final residual = 1.08703e-06, No Iterations 1
DICPCG:  Solving for p, Initial residual = 0.0261195, Final residual = 0.00254004, No Iterations 5
DICPCG:  Solving for p, Initial residual = 0.00325741, Final residual = 0.000324458, No Iterations 58
time step continuity errors : sum local = 2.89047e-08, global = 1.06291e-10, cumulative = 3.81446e-09
DICPCG:  Solving for p, Initial residual = 0.00150073, Final residual = 0.000143948, No Iterations 19
DICPCG:  Solving for p, Initial residual = 0.00023826, Final residual = 2.32534e-05, No Iterations 192
time step continuity errors : sum local = 2.07413e-09, global = 1.43323e-10, cumulative = 3.95778e-09
DICPCG:  Solving for p, Initial residual = 0.000170041, Final residual = 1.69664e-05, No Iterations 2
DICPCG:  Solving for p, Initial residual = 1.89891e-05, Final residual = 1.89829e-06, No Iterations 385
time step continuity errors : sum local = 1.69276e-10, global = -1.91038e-13, cumulative = 3.95759e-09
DICPCG:  Solving for p, Initial residual = 7.15512e-05, Final residual = 2.27016e-06, No Iterations 2
DICPCG:  Solving for p, Initial residual = 3.294e-06, Final residual = 9.72033e-07, No Iterations 171
time step continuity errors : sum local = 8.64939e-11, global = 8.99003e-12, cumulative = 3.96658e-09
ExecutionTime = 694.61 s  ClockTime = 696 s

Time = 0.00025

Courant Number mean: 0.00641196 max: 0.858858

 timeStepFraction() = 0.25

Solver level total Eulerian momentum exchange:
  TotalForceImp:  (-0.287909 -0.0198156 -0.122502)
  Warning, these values are based on latest Ksl and Us but prev. iteration U!

smoothSolver:  Solving for Ux, Initial residual = 0.00920673, Final residual = 3.34344e-06, No Iterations 1
smoothSolver:  Solving for Uy, Initial residual = 0.0198413, Final residual = 5.4672e-06, No Iterations 1
smoothSolver:  Solving for Uz, Initial residual = 0.00436825, Final residual = 1.18379e-06, No Iterations 1
DICPCG:  Solving for p, Initial residual = 0.0250234, Final residual = 0.00248304, No Iterations 5
DICPCG:  Solving for p, Initial residual = 0.00313568, Final residual = 0.000312035, No Iterations 58
time step continuity errors : sum local = 2.85102e-08, global = 1.07024e-10, cumulative = 4.0736e-09
DICPCG:  Solving for p, Initial residual = 0.00144899, Final residual = 0.000142254, No Iterations 18
DICPCG:  Solving for p, Initial residual = 0.000227739, Final residual = 2.26075e-05, No Iterations 179
time step continuity errors : sum local = 2.06814e-09, global = 1.22088e-10, cumulative = 4.19569e-09
DICPCG:  Solving for p, Initial residual = 0.000152542, Final residual = 1.4739e-05, No Iterations 3
DICPCG:  Solving for p, Initial residual = 1.59351e-05, Final residual = 1.57618e-06, No Iterations 392
time step continuity errors : sum local = 1.44158e-10, global = -3.20584e-13, cumulative = 4.19537e-09
DICPCG:  Solving for p, Initial residual = 6.72958e-05, Final residual = 2.03503e-06, No Iterations 2
DICPCG:  Solving for p, Initial residual = 3.00009e-06, Final residual = 9.90585e-07, No Iterations 258
time step continuity errors : sum local = 9.04238e-11, global = 6.62174e-12, cumulative = 4.20199e-09
ExecutionTime = 721.05 s  ClockTime = 723 s

Time = 0.00026

Courant Number mean: 0.00643458 max: 0.906186

 timeStepFraction() = 0.26

Solver level total Eulerian momentum exchange:
  TotalForceImp:  (-0.299579 -0.0206666 -0.126089)
  Warning, these values are based on latest Ksl and Us but prev. iteration U!

smoothSolver:  Solving for Ux, Initial residual = 0.00937995, Final residual = 3.65542e-06, No Iterations 1
smoothSolver:  Solving for Uy, Initial residual = 0.019853, Final residual = 5.86869e-06, No Iterations 1
smoothSolver:  Solving for Uz, Initial residual = 0.00447292, Final residual = 1.28108e-06, No Iterations 1
DICPCG:  Solving for p, Initial residual = 0.0241735, Final residual = 0.00226526, No Iterations 6
DICPCG:  Solving for p, Initial residual = 0.00295298, Final residual = 0.000279332, No Iterations 59
time step continuity errors : sum local = 2.6154e-08, global = 1.12991e-10, cumulative = 4.31498e-09
DICPCG:  Solving for p, Initial residual = 0.00134577, Final residual = 0.0001269, No Iterations 5
DICPCG:  Solving for p, Initial residual = 0.00015705, Final residual = 1.51196e-05, No Iterations 416
time step continuity errors : sum local = 1.41713e-09, global = 1.04949e-12, cumulative = 4.31603e-09
DICPCG:  Solving for p, Initial residual = 0.000186363, Final residual = 1.33922e-05, No Iterations 2
DICPCG:  Solving for p, Initial residual = 1.58237e-05, Final residual = 1.57999e-06, No Iterations 138
time step continuity errors : sum local = 1.478e-10, global = 7.19245e-12, cumulative = 4.32323e-09
DICPCG:  Solving for p, Initial residual = 1.16849e-05, Final residual = 1.06617e-06, No Iterations 2
DICPCG:  Solving for p, Initial residual = 1.23325e-06, Final residual = 9.1475e-07, No Iterations 1
time step continuity errors : sum local = 8.55691e-11, global = 7.62896e-12, cumulative = 4.33086e-09
ExecutionTime = 740.51 s  ClockTime = 742 s

Time = 0.00027

Courant Number mean: 0.00645865 max: 0.953184

 timeStepFraction() = 0.27

Solver level total Eulerian momentum exchange:
  TotalForceImp:  (-0.310983 -0.02147 -0.129706)
  Warning, these values are based on latest Ksl and Us but prev. iteration U!

smoothSolver:  Solving for Ux, Initial residual = 0.00952598, Final residual = 3.98079e-06, No Iterations 1
smoothSolver:  Solving for Uy, Initial residual = 0.0198129, Final residual = 6.27091e-06, No Iterations 1
smoothSolver:  Solving for Uz, Initial residual = 0.00456799, Final residual = 1.38423e-06, No Iterations 1
DICPCG:  Solving for p, Initial residual = 0.0234411, Final residual = 0.00222056, No Iterations 6
DICPCG:  Solving for p, Initial residual = 0.00289575, Final residual = 0.000276549, No Iterations 59
time step continuity errors : sum local = 2.65217e-08, global = 9.21675e-11, cumulative = 4.42302e-09
DICPCG:  Solving for p, Initial residual = 0.00133237, Final residual = 0.000117511, No Iterations 5
DICPCG:  Solving for p, Initial residual = 0.000147391, Final residual = 1.46968e-05, No Iterations 236
time step continuity errors : sum local = 1.41087e-09, global = 1.57425e-10, cumulative = 4.58045e-09
DICPCG:  Solving for p, Initial residual = 0.000161376, Final residual = 1.3159e-05, No Iterations 2
DICPCG:  Solving for p, Initial residual = 1.53092e-05, Final residual = 1.52177e-06, No Iterations 387
time step continuity errors : sum local = 1.46046e-10, global = -1.76171e-12, cumulative = 4.57869e-09
DICPCG:  Solving for p, Initial residual = 4.47445e-05, Final residual = 1.94483e-06, No Iterations 2
DICPCG:  Solving for p, Initial residual = 2.54645e-06, Final residual = 9.58651e-07, No Iterations 38
time step continuity errors : sum local = 9.18615e-11, global = 2.42902e-12, cumulative = 4.58112e-09
ExecutionTime = 762.65 s  ClockTime = 765 s

Time = 0.00028

Courant Number mean: 0.00648412 max: 0.999817

 timeStepFraction() = 0.28

Solver level total Eulerian momentum exchange:
  TotalForceImp:  (-0.322148 -0.0222488 -0.133372)
  Warning, these values are based on latest Ksl and Us but prev. iteration U!

smoothSolver:  Solving for Ux, Initial residual = 0.009658, Final residual = 4.31563e-06, No Iterations 1
smoothSolver:  Solving for Uy, Initial residual = 0.0197349, Final residual = 6.68074e-06, No Iterations 1
smoothSolver:  Solving for Uz, Initial residual = 0.00466063, Final residual = 1.49222e-06, No Iterations 1
DICPCG:  Solving for p, Initial residual = 0.0227326, Final residual = 0.00218939, No Iterations 6
DICPCG:  Solving for p, Initial residual = 0.00286935, Final residual = 0.000285936, No Iterations 56
time step continuity errors : sum local = 2.80678e-08, global = 8.07775e-11, cumulative = 4.66189e-09
DICPCG:  Solving for p, Initial residual = 0.00127114, Final residual = 0.000126774, No Iterations 17
DICPCG:  Solving for p, Initial residual = 0.000204225, Final residual = 1.99682e-05, No Iterations 60
time step continuity errors : sum local = 1.962e-09, global = 7.77547e-11, cumulative = 4.73965e-09
DICPCG:  Solving for p, Initial residual = 0.000102144, Final residual = 1.0047e-05, No Iterations 5
DICPCG:  Solving for p, Initial residual = 1.21915e-05, Final residual = 1.21715e-06, No Iterations 397
time step continuity errors : sum local = 1.19593e-10, global = 5.28164e-15, cumulative = 4.73965e-09
DICPCG:  Solving for p, Initial residual = 7.78503e-05, Final residual = 1.89298e-06, No Iterations 2
DICPCG:  Solving for p, Initial residual = 3.06582e-06, Final residual = 9.97495e-07, No Iterations 151
time step continuity errors : sum local = 9.78559e-11, global = 5.48582e-12, cumulative = 4.74514e-09
ExecutionTime = 783.96 s  ClockTime = 786 s

Time = 0.00029

Courant Number mean: 0.00651088 max: 1.0461

 timeStepFraction() = 0.29

Solver level total Eulerian momentum exchange:
  TotalForceImp:  (-0.333068 -0.0229851 -0.137073)
  Warning, these values are based on latest Ksl and Us but prev. iteration U!

smoothSolver:  Solving for Ux, Initial residual = 0.0097615, Final residual = 4.66013e-06, No Iterations 1
smoothSolver:  Solving for Uy, Initial residual = 0.019615, Final residual = 7.06744e-06, No Iterations 1
smoothSolver:  Solving for Uz, Initial residual = 0.00474775, Final residual = 1.61137e-06, No Iterations 1
DICPCG:  Solving for p, Initial residual = 0.022096, Final residual = 0.00213411, No Iterations 6
DICPCG:  Solving for p, Initial residual = 0.00279428, Final residual = 0.000268809, No Iterations 59
time step continuity errors : sum local = 2.70165e-08, global = 8.60121e-11, cumulative = 4.83115e-09
DICPCG:  Solving for p, Initial residual = 0.00128191, Final residual = 0.000108349, No Iterations 5
DICPCG:  Solving for p, Initial residual = 0.000138306, Final residual = 1.33324e-05, No Iterations 104
time step continuity errors : sum local = 1.34132e-09, global = 8.63234e-11, cumulative = 4.91747e-09
DICPCG:  Solving for p, Initial residual = 0.000129578, Final residual = 1.08972e-05, No Iterations 2
DICPCG:  Solving for p, Initial residual = 1.26459e-05, Final residual = 1.25508e-06, No Iterations 385
time step continuity errors : sum local = 1.2627e-10, global = -1.34812e-12, cumulative = 4.91613e-09
DICPCG:  Solving for p, Initial residual = 3.28619e-05, Final residual = 1.42002e-06, No Iterations 2
DICPCG:  Solving for p, Initial residual = 1.8963e-06, Final residual = 8.36256e-07, No Iterations 3
time step continuity errors : sum local = 8.40519e-11, global = -2.5092e-12, cumulative = 4.91362e-09
ExecutionTime = 801.79 s  ClockTime = 804 s

Time = 0.0003

Courant Number mean: 0.00653896 max: 1.09226

 timeStepFraction() = 0.3

Solver level total Eulerian momentum exchange:
  TotalForceImp:  (-0.343766 -0.0236868 -0.140846)
  Warning, these values are based on latest Ksl and Us but prev. iteration U!

smoothSolver:  Solving for Ux, Initial residual = 0.00985575, Final residual = 5.01417e-06, No Iterations 1
smoothSolver:  Solving for Uy, Initial residual = 0.0194805, Final residual = 7.48599e-06, No Iterations 1
smoothSolver:  Solving for Uz, Initial residual = 0.00483404, Final residual = 1.73345e-06, No Iterations 1
DICPCG:  Solving for p, Initial residual = 0.0215525, Final residual = 0.00208753, No Iterations 6
DICPCG:  Solving for p, Initial residual = 0.00277097, Final residual = 0.000259554, No Iterations 56
time step continuity errors : sum local = 2.66966e-08, global = 6.84984e-11, cumulative = 4.98212e-09
DICPCG:  Solving for p, Initial residual = 0.00118833, Final residual = 0.000115, No Iterations 5
DICPCG:  Solving for p, Initial residual = 0.000142677, Final residual = 1.40098e-05, No Iterations 202
time step continuity errors : sum local = 1.44227e-09, global = 9.71986e-11, cumulative = 5.07931e-09
DICPCG:  Solving for p, Initial residual = 0.000160152, Final residual = 1.2638e-05, No Iterations 2
DICPCG:  Solving for p, Initial residual = 1.48169e-05, Final residual = 1.42963e-06, No Iterations 390
time step continuity errors : sum local = 1.47155e-10, global = 1.75107e-13, cumulative = 5.07949e-09
DICPCG:  Solving for p, Initial residual = 4.80917e-05, Final residual = 1.68667e-06, No Iterations 2
DICPCG:  Solving for p, Initial residual = 2.39325e-06, Final residual = 9.45341e-07, No Iterations 3
time step continuity errors : sum local = 9.71728e-11, global = -1.13657e-12, cumulative = 5.07835e-09
ExecutionTime = 822.05 s  ClockTime = 824 s

Time = 0.00031

Courant Number mean: 0.00656829 max: 1.13777

 timeStepFraction() = 0.31

Solver level total Eulerian momentum exchange:
  TotalForceImp:  (-0.354239 -0.0243429 -0.144666)
  Warning, these values are based on latest Ksl and Us but prev. iteration U!

smoothSolver:  Solving for Ux, Initial residual = 0.00992064, Final residual = 5.35889e-06, No Iterations 1
smoothSolver:  Solving for Uy, Initial residual = 0.0193133, Final residual = 7.87544e-06, No Iterations 1
smoothSolver:  Solving for Uz, Initial residual = 0.00490295, Final residual = 1.86229e-06, No Iterations 1
DICPCG:  Solving for p, Initial residual = 0.0212838, Final residual = 0.00205478, No Iterations 6
DICPCG:  Solving for p, Initial residual = 0.00272203, Final residual = 0.000261686, No Iterations 56
time step continuity errors : sum local = 2.75403e-08, global = 7.45447e-11, cumulative = 5.1529e-09
DICPCG:  Solving for p, Initial residual = 0.00119691, Final residual = 0.000110747, No Iterations 5
DICPCG:  Solving for p, Initial residual = 0.000138823, Final residual = 1.3607e-05, No Iterations 70
time step continuity errors : sum local = 1.43336e-09, global = 7.15426e-11, cumulative = 5.22444e-09
DICPCG:  Solving for p, Initial residual = 0.000127863, Final residual = 1.17117e-05, No Iterations 2
DICPCG:  Solving for p, Initial residual = 1.34335e-05, Final residual = 1.33305e-06, No Iterations 379
time step continuity errors : sum local = 1.40425e-10, global = -9.08784e-14, cumulative = 5.22435e-09
DICPCG:  Solving for p, Initial residual = 5.87719e-05, Final residual = 1.77035e-06, No Iterations 2
DICPCG:  Solving for p, Initial residual = 2.649e-06, Final residual = 8.99708e-07, No Iterations 5
time step continuity errors : sum local = 9.46566e-11, global = 5.6522e-13, cumulative = 5.22491e-09
ExecutionTime = 838.84 s  ClockTime = 841 s

Time = 0.00032

Courant Number mean: 0.00659887 max: 1.18226

 timeStepFraction() = 0.32

Solver level total Eulerian momentum exchange:
  TotalForceImp:  (-0.36453 -0.0249841 -0.148554)
  Warning, these values are based on latest Ksl and Us but prev. iteration U!

smoothSolver:  Solving for Ux, Initial residual = 0.009969, Final residual = 5.69967e-06, No Iterations 1
smoothSolver:  Solving for Uy, Initial residual = 0.01913, Final residual = 8.26409e-06, No Iterations 1
smoothSolver:  Solving for Uz, Initial residual = 0.00497365, Final residual = 1.99938e-06, No Iterations 1
DICPCG:  Solving for p, Initial residual = 0.020728, Final residual = 0.00203336, No Iterations 6
DICPCG:  Solving for p, Initial residual = 0.00268223, Final residual = 0.00026119, No Iterations 55
time step continuity errors : sum local = 2.81134e-08, global = 6.10027e-11, cumulative = 5.28592e-09
DICPCG:  Solving for p, Initial residual = 0.00115622, Final residual = 0.000109298, No Iterations 5
DICPCG:  Solving for p, Initial residual = 0.000137984, Final residual = 1.37285e-05, No Iterations 201
time step continuity errors : sum local = 1.47896e-09, global = 9.27637e-11, cumulative = 5.37868e-09
DICPCG:  Solving for p, Initial residual = 0.000164011, Final residual = 1.27891e-05, No Iterations 2
DICPCG:  Solving for p, Initial residual = 1.49977e-05, Final residual = 1.44598e-06, No Iterations 395
time step continuity errors : sum local = 1.55754e-10, global = -1.6392e-13, cumulative = 5.37852e-09
DICPCG:  Solving for p, Initial residual = 4.81107e-05, Final residual = 1.7668e-06, No Iterations 2
DICPCG:  Solving for p, Initial residual = 2.47113e-06, Final residual = 9.3467e-07, No Iterations 3
time step continuity errors : sum local = 1.00544e-10, global = -2.20382e-12, cumulative = 5.37631e-09
ExecutionTime = 859.52 s  ClockTime = 862 s

Time = 0.00033

Courant Number mean: 0.00663061 max: 1.22619

 timeStepFraction() = 0.33

Solver level total Eulerian momentum exchange:
  TotalForceImp:  (-0.374642 -0.025594 -0.152489)
  Warning, these values are based on latest Ksl and Us but prev. iteration U!

smoothSolver:  Solving for Ux, Initial residual = 0.00999714, Final residual = 6.03911e-06, No Iterations 1
smoothSolver:  Solving for Uy, Initial residual = 0.0189307, Final residual = 8.63979e-06, No Iterations 1
smoothSolver:  Solving for Uz, Initial residual = 0.0050394, Final residual = 2.14875e-06, No Iterations 1
DICPCG:  Solving for p, Initial residual = 0.0201462, Final residual = 0.00200897, No Iterations 6
DICPCG:  Solving for p, Initial residual = 0.00264676, Final residual = 0.000260145, No Iterations 55
time step continuity errors : sum local = 2.8612e-08, global = 5.93218e-11, cumulative = 5.43563e-09
DICPCG:  Solving for p, Initial residual = 0.00116929, Final residual = 0.00010775, No Iterations 5
DICPCG:  Solving for p, Initial residual = 0.000136829, Final residual = 1.34947e-05, No Iterations 197
time step continuity errors : sum local = 1.48554e-09, global = 8.66243e-11, cumulative = 5.52226e-09
DICPCG:  Solving for p, Initial residual = 0.000157157, Final residual = 1.30391e-05, No Iterations 2
DICPCG:  Solving for p, Initial residual = 1.51563e-05, Final residual = 1.4417e-06, No Iterations 384
time step continuity errors : sum local = 1.58687e-10, global = 3.58163e-13, cumulative = 5.52262e-09
DICPCG:  Solving for p, Initial residual = 4.52207e-05, Final residual = 1.71134e-06, No Iterations 2
DICPCG:  Solving for p, Initial residual = 2.38009e-06, Final residual = 9.31264e-07, No Iterations 3
time step continuity errors : sum local = 1.02378e-10, global = -1.71688e-12, cumulative = 5.5209e-09
ExecutionTime = 879.5 s  ClockTime = 882 s

Time = 0.00034

Courant Number mean: 0.00666356 max: 1.26941

 timeStepFraction() = 0.34

Solver level total Eulerian momentum exchange:
  TotalForceImp:  (-0.384584 -0.0261809 -0.156488)
  Warning, these values are based on latest Ksl and Us but prev. iteration U!

smoothSolver:  Solving for Ux, Initial residual = 0.0100071, Final residual = 6.37835e-06, No Iterations 1
smoothSolver:  Solving for Uy, Initial residual = 0.0187036, Final residual = 9.02304e-06, No Iterations 1
smoothSolver:  Solving for Uz, Initial residual = 0.00510149, Final residual = 2.29845e-06, No Iterations 1
DICPCG:  Solving for p, Initial residual = 0.0197316, Final residual = 0.00188045, No Iterations 7
DICPCG:  Solving for p, Initial residual = 0.00262927, Final residual = 0.000244549, No Iterations 55
time step continuity errors : sum local = 2.74547e-08, global = 5.31325e-11, cumulative = 5.57403e-09
DICPCG:  Solving for p, Initial residual = 0.00110357, Final residual = 9.70933e-05, No Iterations 5
DICPCG:  Solving for p, Initial residual = 0.000124199, Final residual = 1.19648e-05, No Iterations 68
time step continuity errors : sum local = 1.34439e-09, global = 5.1685e-11, cumulative = 5.62572e-09
DICPCG:  Solving for p, Initial residual = 0.000119402, Final residual = 1.1432e-05, No Iterations 2
DICPCG:  Solving for p, Initial residual = 1.30315e-05, Final residual = 1.28183e-06, No Iterations 376
time step continuity errors : sum local = 1.44031e-10, global = -2.9556e-13, cumulative = 5.62542e-09
DICPCG:  Solving for p, Initial residual = 4.79903e-05, Final residual = 1.66636e-06, No Iterations 2
DICPCG:  Solving for p, Initial residual = 2.37892e-06, Final residual = 9.41794e-07, No Iterations 2
time step continuity errors : sum local = 1.05719e-10, global = -2.38716e-12, cumulative = 5.62304e-09
ExecutionTime = 896.22 s  ClockTime = 899 s

Time = 0.00035

Courant Number mean: 0.00669767 max: 1.31193

 timeStepFraction() = 0.35

Solver level total Eulerian momentum exchange:
  TotalForceImp:  (-0.394365 -0.0267364 -0.160542)
  Warning, these values are based on latest Ksl and Us but prev. iteration U!

smoothSolver:  Solving for Ux, Initial residual = 0.0100113, Final residual = 6.72032e-06, No Iterations 1
smoothSolver:  Solving for Uy, Initial residual = 0.0184604, Final residual = 9.36107e-06, No Iterations 1
smoothSolver:  Solving for Uz, Initial residual = 0.00515915, Final residual = 2.45747e-06, No Iterations 1
DICPCG:  Solving for p, Initial residual = 0.0194253, Final residual = 0.00192825, No Iterations 6
DICPCG:  Solving for p, Initial residual = 0.00256031, Final residual = 0.000240577, No Iterations 55
time step continuity errors : sum local = 2.75735e-08, global = 5.29599e-11, cumulative = 5.676e-09
DICPCG:  Solving for p, Initial residual = 0.00109705, Final residual = 9.64981e-05, No Iterations 5
DICPCG:  Solving for p, Initial residual = 0.000125655, Final residual = 1.23208e-05, No Iterations 68
time step continuity errors : sum local = 1.4133e-09, global = 5.14307e-11, cumulative = 5.72743e-09
DICPCG:  Solving for p, Initial residual = 0.000119691, Final residual = 1.17886e-05, No Iterations 2
DICPCG:  Solving for p, Initial residual = 1.33995e-05, Final residual = 1.31064e-06, No Iterations 370
time step continuity errors : sum local = 1.50343e-10, global = 7.54459e-14, cumulative = 5.7275e-09
DICPCG:  Solving for p, Initial residual = 4.99485e-05, Final residual = 1.84954e-06, No Iterations 2
DICPCG:  Solving for p, Initial residual = 2.58448e-06, Final residual = 8.50693e-07, No Iterations 3
time step continuity errors : sum local = 9.74867e-11, global = -1.41406e-12, cumulative = 5.72609e-09
ExecutionTime = 912.84 s  ClockTime = 915 s

Time = 0.00036

Courant Number mean: 0.0067329 max: 1.35384

 timeStepFraction() = 0.36

Solver level total Eulerian momentum exchange:
  TotalForceImp:  (-0.404006 -0.0272855 -0.164676)
  Warning, these values are based on latest Ksl and Us but prev. iteration U!

smoothSolver:  Solving for Ux, Initial residual = 0.0100049, Final residual = 7.07291e-06, No Iterations 1
smoothSolver:  Solving for Uy, Initial residual = 0.0182008, Final residual = 9.70321e-06, No Iterations 1
smoothSolver:  Solving for Uz, Initial residual = 0.00521014, Final residual = 2.61441e-06, No Iterations 1
DICPCG:  Solving for p, Initial residual = 0.019027, Final residual = 0.00185013, No Iterations 7
DICPCG:  Solving for p, Initial residual = 0.00257648, Final residual = 0.000256371, No Iterations 54
time step continuity errors : sum local = 2.99971e-08, global = 5.26135e-11, cumulative = 5.7787e-09
DICPCG:  Solving for p, Initial residual = 0.00109951, Final residual = 9.72103e-05, No Iterations 5
DICPCG:  Solving for p, Initial residual = 0.000125887, Final residual = 1.22865e-05, No Iterations 67
time step continuity errors : sum local = 1.43882e-09, global = 4.91034e-11, cumulative = 5.8278e-09
DICPCG:  Solving for p, Initial residual = 0.000122013, Final residual = 1.20083e-05, No Iterations 2
DICPCG:  Solving for p, Initial residual = 1.36566e-05, Final residual = 1.28637e-06, No Iterations 391
time step continuity errors : sum local = 1.50643e-10, global = 6.4635e-13, cumulative = 5.82845e-09
DICPCG:  Solving for p, Initial residual = 4.31861e-05, Final residual = 1.77237e-06, No Iterations 2
DICPCG:  Solving for p, Initial residual = 2.40349e-06, Final residual = 9.85661e-07, No Iterations 2
time step continuity errors : sum local = 1.15326e-10, global = -1.28548e-12, cumulative = 5.82716e-09
ExecutionTime = 929.82 s  ClockTime = 932 s

Time = 0.00037

Courant Number mean: 0.00676927 max: 1.39541

 timeStepFraction() = 0.37

Solver level total Eulerian momentum exchange:
  TotalForceImp:  (-0.41353 -0.0277907 -0.168853)
  Warning, these values are based on latest Ksl and Us but prev. iteration U!

smoothSolver:  Solving for Ux, Initial residual = 0.00998804, Final residual = 7.40561e-06, No Iterations 1
[...]
DICPCG:  Solving for p, Initial residual = 0.0295597, Final residual = 0.00236317, No Iterations 6
DICPCG:  Solving for p, Initial residual = 0.00464533, Final residual = 0.000428856, No Iterations 22
time step continuity errors : sum local = 1.77142e-07, global = -6.58734e-11, cumulative = 6.56145e-09
DICPCG:  Solving for p, Initial residual = 0.00517399, Final residual = 0.000406204, No Iterations 5
DICPCG:  Solving for p, Initial residual = 0.000748061, Final residual = 7.38667e-05, No Iterations 50
time step continuity errors : sum local = 3.05753e-08, global = -5.47638e-11, cumulative = 6.50669e-09
DICPCG:  Solving for p, Initial residual = 0.00199526, Final residual = 0.000159109, No Iterations 2
DICPCG:  Solving for p, Initial residual = 0.000205688, Final residual = 2.05395e-05, No Iterations 16
time step continuity errors : sum local = 8.50237e-09, global = -5.51899e-11, cumulative = 6.4515e-09
DICPCG:  Solving for p, Initial residual = 0.00122156, Final residual = 6.10426e-05, No Iterations 2
DICPCG:  Solving for p, Initial residual = 8.8956e-05, Final residual = 9.33623e-07, No Iterations 427
time step continuity errors : sum local = 3.86435e-10, global = 8.35591e-13, cumulative = 6.45233e-09
ExecutionTime = 2217.35 s  ClockTime = 2223 s

Time = 0.00112

Courant Number mean: 0.0131375 max: 2.95555

 timeStepFraction() = 0.12

Solver level total Eulerian momentum exchange:
  TotalForceImp:  (-0.494708 -0.028574 -0.541938)
  Warning, these values are based on latest Ksl and Us but prev. iteration U!

smoothSolver:  Solving for Ux, Initial residual = 0.00546015, Final residual = 8.88457e-06, No Iterations 5
smoothSolver:  Solving for Uy, Initial residual = 0.00741782, Final residual = 9.61332e-06, No Iterations 13
smoothSolver:  Solving for Uz, Initial residual = 0.00522905, Final residual = 9.37122e-06, No Iterations 4
DICPCG:  Solving for p, Initial residual = 0.0302274, Final residual = 0.0023951, No Iterations 6
DICPCG:  Solving for p, Initial residual = 0.00473094, Final residual = 0.000427227, No Iterations 22
time step continuity errors : sum local = 1.76716e-07, global = -7.00506e-11, cumulative = 6.38228e-09
DICPCG:  Solving for p, Initial residual = 0.00534453, Final residual = 0.000415759, No Iterations 5
DICPCG:  Solving for p, Initial residual = 0.000768023, Final residual = 7.44617e-05, No Iterations 50
time step continuity errors : sum local = 3.08639e-08, global = -5.78e-11, cumulative = 6.32448e-09
DICPCG:  Solving for p, Initial residual = 0.00214276, Final residual = 0.000160609, No Iterations 2
DICPCG:  Solving for p, Initial residual = 0.000206923, Final residual = 2.00048e-05, No Iterations 16
time step continuity errors : sum local = 8.29294e-09, global = -5.82194e-11, cumulative = 6.26626e-09
DICPCG:  Solving for p, Initial residual = 0.00138163, Final residual = 5.809e-05, No Iterations 2
DICPCG:  Solving for p, Initial residual = 8.90881e-05, Final residual = 9.7517e-07, No Iterations 428
time step continuity errors : sum local = 4.04309e-10, global = 1.43675e-13, cumulative = 6.26641e-09
ExecutionTime = 2235.28 s  ClockTime = 2241 s

Time = 0.00113

Courant Number mean: 0.0132061 max: 2.93896

 timeStepFraction() = 0.13

Solver level total Eulerian momentum exchange:
  TotalForceImp:  (-0.47422 -0.02767 -0.537572)
  Warning, these values are based on latest Ksl and Us but prev. iteration U!

smoothSolver:  Solving for Ux, Initial residual = 0.00542754, Final residual = 7.27941e-06, No Iterations 4
smoothSolver:  Solving for Uy, Initial residual = 0.00740594, Final residual = 9.31436e-06, No Iterations 5
smoothSolver:  Solving for Uz, Initial residual = 0.00519479, Final residual = 7.2824e-06, No Iterations 4
DICPCG:  Solving for p, Initial residual = 0.0303033, Final residual = 0.00240202, No Iterations 6
DICPCG:  Solving for p, Initial residual = 0.00478868, Final residual = 0.000478184, No Iterations 12
time step continuity errors : sum local = 1.98025e-07, global = -7.30325e-12, cumulative = 6.2591e-09
DICPCG:  Solving for p, Initial residual = 0.00517726, Final residual = 0.000468319, No Iterations 5
DICPCG:  Solving for p, Initial residual = 0.000804907, Final residual = 7.67487e-05, No Iterations 56
time step continuity errors : sum local = 3.18596e-08, global = -3.96912e-11, cumulative = 6.21941e-09
DICPCG:  Solving for p, Initial residual = 0.00203511, Final residual = 0.000168716, No Iterations 2
DICPCG:  Solving for p, Initial residual = 0.000215859, Final residual = 2.02616e-05, No Iterations 24
time step continuity errors : sum local = 8.41144e-09, global = -3.96943e-11, cumulative = 6.17972e-09
DICPCG:  Solving for p, Initial residual = 0.00115337, Final residual = 5.08108e-05, No Iterations 2
DICPCG:  Solving for p, Initial residual = 7.54535e-05, Final residual = 9.68686e-07, No Iterations 421
time step continuity errors : sum local = 4.02095e-10, global = 1.79714e-13, cumulative = 6.1799e-09
ExecutionTime = 2252.6 s  ClockTime = 2259 s

Time = 0.00114

Courant Number mean: 0.013272 max: 2.92098

 timeStepFraction() = 0.14

Solver level total Eulerian momentum exchange:
  TotalForceImp:  (-0.454681 -0.0267445 -0.533166)
  Warning, these values are based on latest Ksl and Us but prev. iteration U!

smoothSolver:  Solving for Ux, Initial residual = 0.00538597, Final residual = 8.53456e-06, No Iterations 4
smoothSolver:  Solving for Uy, Initial residual = 0.00737808, Final residual = 9.32212e-06, No Iterations 13
smoothSolver:  Solving for Uz, Initial residual = 0.00516114, Final residual = 9.8436e-06, No Iterations 4
DICPCG:  Solving for p, Initial residual = 0.0309292, Final residual = 0.00247054, No Iterations 6
DICPCG:  Solving for p, Initial residual = 0.00492979, Final residual = 0.000482861, No Iterations 12
time step continuity errors : sum local = 2.00282e-07, global = -1.66079e-11, cumulative = 6.16329e-09
DICPCG:  Solving for p, Initial residual = 0.00555136, Final residual = 0.000472419, No Iterations 5
DICPCG:  Solving for p, Initial residual = 0.000832835, Final residual = 8.15584e-05, No Iterations 55
time step continuity errors : sum local = 3.39141e-08, global = -4.83248e-11, cumulative = 6.11497e-09
DICPCG:  Solving for p, Initial residual = 0.00234078, Final residual = 0.000179456, No Iterations 2
DICPCG:  Solving for p, Initial residual = 0.000230534, Final residual = 2.25701e-05, No Iterations 24
time step continuity errors : sum local = 9.38613e-09, global = -4.83936e-11, cumulative = 6.06657e-09
DICPCG:  Solving for p, Initial residual = 0.00148053, Final residual = 6.69183e-05, No Iterations 2
DICPCG:  Solving for p, Initial residual = 0.000103945, Final residual = 9.80709e-07, No Iterations 425
time step continuity errors : sum local = 4.07817e-10, global = 9.06127e-14, cumulative = 6.06666e-09
ExecutionTime = 2270.46 s  ClockTime = 2277 s

Time = 0.00115

Courant Number mean: 0.0133353 max: 2.90263

 timeStepFraction() = 0.15

Solver level total Eulerian momentum exchange:
  TotalForceImp:  (-0.435981 -0.0258468 -0.52874)
  Warning, these values are based on latest Ksl and Us but prev. iteration U!

smoothSolver:  Solving for Ux, Initial residual = 0.00535881, Final residual = 8.99464e-06, No Iterations 3
smoothSolver:  Solving for Uy, Initial residual = 0.00737119, Final residual = 7.69495e-06, No Iterations 6
smoothSolver:  Solving for Uz, Initial residual = 0.00513538, Final residual = 8.51537e-06, No Iterations 4
DICPCG:  Solving for p, Initial residual = 0.0310785, Final residual = 0.00250359, No Iterations 6
DICPCG:  Solving for p, Initial residual = 0.00500128, Final residual = 0.00045907, No Iterations 12
time step continuity errors : sum local = 1.90651e-07, global = -2.78502e-11, cumulative = 6.03881e-09
DICPCG:  Solving for p, Initial residual = 0.00528456, Final residual = 0.000475849, No Iterations 5
DICPCG:  Solving for p, Initial residual = 0.00083256, Final residual = 8.2032e-05, No Iterations 54
time step continuity errors : sum local = 3.41525e-08, global = -5.83561e-11, cumulative = 5.98046e-09
DICPCG:  Solving for p, Initial residual = 0.00203812, Final residual = 0.000182308, No Iterations 2
DICPCG:  Solving for p, Initial residual = 0.000227595, Final residual = 2.20925e-05, No Iterations 25
time step continuity errors : sum local = 9.1987e-09, global = -5.85459e-11, cumulative = 5.92191e-09
DICPCG:  Solving for p, Initial residual = 0.00120192, Final residual = 5.66106e-05, No Iterations 2
DICPCG:  Solving for p, Initial residual = 8.3174e-05, Final residual = 9.42734e-07, No Iterations 422
time step continuity errors : sum local = 3.92499e-10, global = 8.36323e-13, cumulative = 5.92275e-09
ExecutionTime = 2287.81 s  ClockTime = 2294 s

Time = 0.00116

Courant Number mean: 0.0133963 max: 2.88405

 timeStepFraction() = 0.16

Solver level total Eulerian momentum exchange:
  TotalForceImp:  (-0.417914 -0.0248564 -0.524338)
  Warning, these values are based on latest Ksl and Us but prev. iteration U!

smoothSolver:  Solving for Ux, Initial residual = 0.00532976, Final residual = 9.621e-06, No Iterations 4
smoothSolver:  Solving for Uy, Initial residual = 0.00736907, Final residual = 4.13946e+26, No Iterations 1000
smoothSolver:  Solving for Uz, Initial residual = 0.00511082, Final residual = 9.777e-06, No Iterations 4
DICPCG:  Solving for p, Initial residual = 1, Final residual = 0.0726232, No Iterations 2
DICPCG:  Solving for p, Initial residual = 0.0449916, Final residual = 0.00336517, No Iterations 5
time step continuity errors : sum local = 3.48715e+22, global = 2.41622e+08, cumulative = 2.41622e+08
DICPCG:  Solving for p, Initial residual = 0.710509, Final residual = 0.0484641, No Iterations 2
DICPCG:  Solving for p, Initial residual = 0.0697914, Final residual = 0.00695268, No Iterations 4
time step continuity errors : sum local = 5.76881e+22, global = -9.57986e+08, cumulative = -7.16363e+08
DICPCG:  Solving for p, Initial residual = 0.707075, Final residual = 0.0301029, No Iterations 2
DICPCG:  Solving for p, Initial residual = 0.0409721, Final residual = 0.00396098, No Iterations 4
time step continuity errors : sum local = 2.99297e+22, global = -2.60202e+08, cumulative = -9.76565e+08
DICPCG:  Solving for p, Initial residual = 0.689262, Final residual = 0.0297175, No Iterations 2
DICPCG:  Solving for p, Initial residual = 0.0408342, Final residual = 9.90509e-07, No Iterations 154
time step continuity errors : sum local = 7.53157e+18, global = 1.17271e+11, cumulative = 1.16295e+11
ExecutionTime = 2327.48 s  ClockTime = 2334 s

Time = 0.00117

Courant Number mean: 1.18869e+25 max: 2.82372e+30

 timeStepFraction() = 0.17

Solver level total Eulerian momentum exchange:
  TotalForceImp:  (-6.12764e+22 -8.54322e+24 -7.59069e+22)
  Warning, these values are based on latest Ksl and Us but prev. iteration U!

[0] #0  [1] #0  [2] #0  Foam::error::printStack(Foam::Ostream&)Foam::error::printStack(Foam::Ostream&)Foam::error::printStack(Foam::Ostream&) at ??:?
[0] #1  Foam::sigFpe::sigHandler(int) at ??:?
[1] #1  Foam::sigFpe::sigHandler(int) at ??:?
[2] #1  Foam::sigFpe::sigHandler(int) at ??:?
[0] #2  ? at ??:?
[1] #2  ? at ??:?
[2] #2  ? in "/lib/x86_64-linux-gnu/libpthread.so.0"
[0] #3  Foam::symGaussSeidelSmoother::smooth(Foam::word const&, Foam::Field<double>&, Foam::lduMatrix const&, Foam::Field<double> const&, Foam::FieldField<Foam::Field, double> const&, Foam::UPtrList<Foam::lduInterfaceField const> const&, unsigned char, int) in "/lib/x86_64-linux-gnu/libpthread.so.0"
[1] #3  Foam::symGaussSeidelSmoother::smooth(Foam::word const&, Foam::Field<double>&, Foam::lduMatrix const&, Foam::Field<double> const&, Foam::FieldField<Foam::Field, double> const&, Foam::UPtrList<Foam::lduInterfaceField const> const&, unsigned char, int) in "/lib/x86_64-linux-gnu/libpthread.so.0"
[2] #3  Foam::symGaussSeidelSmoother::smooth(Foam::word const&, Foam::Field<double>&, Foam::lduMatrix const&, Foam::Field<double> const&, Foam::FieldField<Foam::Field, double> const&, Foam::UPtrList<Foam::lduInterfaceField const> const&, unsigned char, int) at ??:?
[0] #4  Foam::symGaussSeidelSmoother::smooth(Foam::Field<double>&, Foam::Field<double> const&, unsigned char, int) const at ??:?
[1] #4  Foam::symGaussSeidelSmoother::smooth(Foam::Field<double>&, Foam::Field<double> const&, unsigned char, int) const at ??:?
[2] #4  Foam::symGaussSeidelSmoother::smooth(Foam::Field<double>&, Foam::Field<double> const&, unsigned char, int) const at ??:?
[0] #5  Foam::smoothSolver::solve(Foam::Field<double>&, Foam::Field<double> const&, unsigned char) const at ??:?
[1] #5  Foam::smoothSolver::solve(Foam::Field<double>&, Foam::Field<double> const&, unsigned char) const at ??:?
[2] #5  Foam::smoothSolver::solve(Foam::Field<double>&, Foam::Field<double> const&, unsigned char) const at ??:?
[0] #6   at ??:?
[1] #6   at ??:?
[2] #6  Foam::fvMatrix<Foam::Vector<double> >::solveSegregated(Foam::dictionary const&)Foam::fvMatrix<Foam::Vector<double> >::solveSegregated(Foam::dictionary const&)Foam::fvMatrix<Foam::Vector<double> >::solveSegregated(Foam::dictionary const&) at ??:?
[1] #7   at ??:?
[0] #7   at ??:?
[2] #7  Foam::fvMatrix<Foam::Vector<double> >::solve(Foam::dictionary const&)Foam::fvMatrix<Foam::Vector<double> >::solve(Foam::dictionary const&)Foam::fvMatrix<Foam::Vector<double> >::solve(Foam::dictionary const&) at ??:?
[1] #8   at ??:?
[0] #8  Foam::SolverPerformance<Foam::Vector<double> > Foam::solve<Foam::Vector<double> >(Foam::tmp<Foam::fvMatrix<Foam::Vector<double> > > const&)Foam::SolverPerformance<Foam::Vector<double> > Foam::solve<Foam::Vector<double> >(Foam::tmp<Foam::fvMatrix<Foam::Vector<double> > > const&) at ??:?
[2] #8   at ??:?
[1] #9   at ??:?
[0] #9  Foam::SolverPerformance<Foam::Vector<double> > Foam::solve<Foam::Vector<double> >(Foam::tmp<Foam::fvMatrix<Foam::Vector<double> > > const&)?? at ??:?
[2] #9   at ??:?
[1] #10  __libc_start_main at ??:?
[0] #10  __libc_start_main? in "/lib/x86_64-linux-gnu/libc.so.6"
[1] #11   in "/lib/x86_64-linux-gnu/libc.so.6"
[0] #11   at ??:?
[2] #10  __libc_start_main?? in "/lib/x86_64-linux-gnu/libc.so.6"
[2] #11   at ??:?
[hwb-virtual-machine:97077] *** Process received signal ***
[hwb-virtual-machine:97077] Signal: Floating point exception (8)
[hwb-virtual-machine:97077] Signal code:  (-6)
[hwb-virtual-machine:97077] Failing at address: 0x3e800017b35
[hwb-virtual-machine:97077] [ 0] /lib/x86_64-linux-gnu/libpthread.so.0(+0x11390)[0x7fa7be63c390]
[hwb-virtual-machine:97077] [ 1] /lib/x86_64-linux-gnu/libpthread.so.0(raise+0x29)[0x7fa7be63c269]
[hwb-virtual-machine:97077] [ 2] /lib/x86_64-linux-gnu/libpthread.so.0(+0x11390)[0x7fa7be63c390]
[hwb-virtual-machine:97077] [ 3] /opt/openfoam5/platforms/linux64GccDPInt32Opt/lib/libOpenFOAM.so(_ZN4Foam22symGaussSeidelSmoother6smoothERKNS_4wordERNS_5FieldIdEERKNS_9lduMatrixERKS5_RKNS_10FieldFieldIS4_dEERKNS_8UPtrListIKNS_17lduInterfaceFieldEEEhi+0x49d)[0x7fa7bf77f69d]
[hwb-virtual-machine:97077] [ 4] /opt/openfoam5/platforms/linux64GccDPInt32Opt/lib/libOpenFOAM.so(_ZNK4Foam22symGaussSeidelSmoother6smoothERNS_5FieldIdEERKS2_hi+0x28)[0x7fa7bf77fb98]
[hwb-virtual-machine:97077] [ 5] /opt/openfoam5/platforms/linux64GccDPInt32Opt/lib/libOpenFOAM.so(_ZNK4Foam12smoothSolver5solveERNS_5FieldIdEERKS2_h+0x4fe)[0x7fa7bf776b6e]
[hwb-virtual-machine:97077] [ 6] cfdemSolverPiso(_ZN4Foam8fvMatrixINS_6VectorIdEEE15solveSegregatedERKNS_10dictionaryE+0x513)[0x468333]
[hwb-virtual-machine:97077] [ 7] cfdemSolverPiso(_ZN4Foam8fvMatrixINS_6VectorIdEEE5solveERKNS_10dictionaryE+0x1c9)[0x4757e9]
[hwb-virtual-machine:97077] [ 8] cfdemSolverPiso(_ZN4Foam5solveINS_6VectorIdEEEENS_17SolverPerformanceIT_EERKNS_3tmpINS_8fvMatrixIS4_EEEE+0xfe)[0x475a9e]
[hwb-virtual-machine:97077] [ 9] cfdemSolverPiso[0x428e16]
[hwb-virtual-machine:97077] [10] /lib/x86_64-linux-gnu/libc.so.6(__libc_start_main+0xf0)[0x7fa7be281830]
[hwb-virtual-machine:97077] [11] cfdemSolverPiso[0x42b009]
[hwb-virtual-machine:97077] *** End of error message ***
 at ??:?
[hwb-virtual-machine:97076] *** Process received signal ***
[hwb-virtual-machine:97076] Signal: Floating point exception (8)
[hwb-virtual-machine:97076] Signal code:  (-6)
[hwb-virtual-machine:97076] Failing at address: 0x3e800017b34
[hwb-virtual-machine:97076] [ 0] /lib/x86_64-linux-gnu/libpthread.so.0(+0x11390)[0x7f40789d4390]
[hwb-virtual-machine:97076] [ 1] /lib/x86_64-linux-gnu/libpthread.so.0(raise+0x29)[0x7f40789d4269]
[hwb-virtual-machine:97076] [ 2] /lib/x86_64-linux-gnu/libpthread.so.0(+0x11390)[0x7f40789d4390]
[hwb-virtual-machine:97076] [ 3] /opt/openfoam5/platforms/linux64GccDPInt32Opt/lib/libOpenFOAM.so(_ZN4Foam22symGaussSeidelSmoother6smoothERKNS_4wordERNS_5FieldIdEERKNS_9lduMatrixERKS5_RKNS_10FieldFieldIS4_dEERKNS_8UPtrListIKNS_17lduInterfaceFieldEEEhi+0x49d)[0x7f4079b1769d]
[hwb-virtual-machine:97076] [ 4] /opt/openfoam5/platforms/linux64GccDPInt32Opt/lib/libOpenFOAM.so(_ZNK4Foam22symGaussSeidelSmoother6smoothERNS_5FieldIdEERKS2_hi+0x28)[0x7f4079b17b98]
[hwb-virtual-machine:97076] [ 5] /opt/openfoam5/platforms/linux64GccDPInt32Opt/lib/libOpenFOAM.so(_ZNK4Foam12smoothSolver5solveERNS_5FieldIdEERKS2_h+0x4fe)[0x7f4079b0eb6e]
[hwb-virtual-machine:97076] [ 6] cfdemSolverPiso(_ZN4Foam8fvMatrixINS_6VectorIdEEE15solveSegregatedERKNS_10dictionaryE+0x513)[0x468333]
[hwb-virtual-machine:97076] [ 7] cfdemSolverPiso(_ZN4Foam8fvMatrixINS_6VectorIdEEE5solveERKNS_10dictionaryE+0x1c9)[0x4757e9]
[hwb-virtual-machine:97076] [ 8] cfdemSolverPiso(_ZN4Foam5solveINS_6VectorIdEEEENS_17SolverPerformanceIT_EERKNS_3tmpINS_8fvMatrixIS4_EEEE+0xfe)[0x475a9e]
[hwb-virtual-machine:97076] [ 9] cfdemSolverPiso[0x428e16]
[hwb-virtual-machine:97076] [10] /lib/x86_64-linux-gnu/libc.so.6(__libc_start_main+0xf0)[0x7f4078619830]
[hwb-virtual-machine:97076] [11] cfdemSolverPiso[0x42b009]
[hwb-virtual-machine:97076] *** End of error message ***
? at ??:?
[hwb-virtual-machine:97078] *** Process received signal ***
[hwb-virtual-machine:97078] Signal: Floating point exception (8)
[hwb-virtual-machine:97078] Signal code:  (-6)
[hwb-virtual-machine:97078] Failing at address: 0x3e800017b36
[hwb-virtual-machine:97078] [ 0] /lib/x86_64-linux-gnu/libpthread.so.0(+0x11390)[0x7f01cd10c390]
[hwb-virtual-machine:97078] [ 1] /lib/x86_64-linux-gnu/libpthread.so.0(raise+0x29)[0x7f01cd10c269]
[hwb-virtual-machine:97078] [ 2] /lib/x86_64-linux-gnu/libpthread.so.0(+0x11390)[0x7f01cd10c390]
[hwb-virtual-machine:97078] [ 3] /opt/openfoam5/platforms/linux64GccDPInt32Opt/lib/libOpenFOAM.so(_ZN4Foam22symGaussSeidelSmoother6smoothERKNS_4wordERNS_5FieldIdEERKNS_9lduMatrixERKS5_RKNS_10FieldFieldIS4_dEERKNS_8UPtrListIKNS_17lduInterfaceFieldEEEhi+0x744)[0x7f01ce24f944]
[hwb-virtual-machine:97078] [ 4] /opt/openfoam5/platforms/linux64GccDPInt32Opt/lib/libOpenFOAM.so(_ZNK4Foam22symGaussSeidelSmoother6smoothERNS_5FieldIdEERKS2_hi+0x28)[0x7f01ce24fb98]
[hwb-virtual-machine:97078] [ 5] /opt/openfoam5/platforms/linux64GccDPInt32Opt/lib/libOpenFOAM.so(_ZNK4Foam12smoothSolver5solveERNS_5FieldIdEERKS2_h+0x4fe)[0x7f01ce246b6e]
[hwb-virtual-machine:97078] [ 6] cfdemSolverPiso(_ZN4Foam8fvMatrixINS_6VectorIdEEE15solveSegregatedERKNS_10dictionaryE+0x513)[0x468333]
[hwb-virtual-machine:97078] [ 7] cfdemSolverPiso(_ZN4Foam8fvMatrixINS_6VectorIdEEE5solveERKNS_10dictionaryE+0x1c9)[0x4757e9]
[hwb-virtual-machine:97078] [ 8] cfdemSolverPiso(_ZN4Foam5solveINS_6VectorIdEEEENS_17SolverPerformanceIT_EERKNS_3tmpINS_8fvMatrixIS4_EEEE+0xfe)[0x475a9e]
[hwb-virtual-machine:97078] [ 9] cfdemSolverPiso[0x428e16]
[hwb-virtual-machine:97078] [10] /lib/x86_64-linux-gnu/libc.so.6(__libc_start_main+0xf0)[0x7f01ccd51830]
[hwb-virtual-machine:97078] [11] cfdemSolverPiso[0x42b009]
[hwb-virtual-machine:97078] *** End of error message ***
--------------------------------------------------------------------------
mpirun noticed that process rank 1 with PID 97077 on node hwb-virtual-machine exited on signal 8 (Floating point exception).
--------------------------------------------------------------------------
